@<TRIPOS>MOLECULE
1T.xyz
 9 9 0 0 0
SMALL
GASTEIGER

@<TRIPOS>ATOM
      1 C           1.2345    0.5560   -0.2745 C.ar    1  UNL1       -0.0243
      2 C           0.7055   -0.7159   -0.2982 C.ar    1  UNL1       -0.0547
      3 C          -0.7195   -0.7023   -0.2778 C.ar    1  UNL1       -0.0547
      4 C          -1.2233    0.5794   -0.2393 C.ar    1  UNL1       -0.0243
      5 S           0.0173    1.7585   -0.2280 S.2     1  UNL1       -0.1051
      6 H           2.2777    0.8405   -0.2822 H       1  UNL1        0.0693
      7 H           1.3121   -1.6126   -0.3286 H       1  UNL1        0.0623
      8 H          -1.3437   -1.5873   -0.2906 H       1  UNL1        0.0623
      9 H          -2.2607    0.8836   -0.2173 H       1  UNL1        0.0693
@<TRIPOS>BOND
     1     7     2    1
     2     2     3   ar
     3     2     1   ar
     4     8     3    1
     5     6     1    1
     6     3     4   ar
     7     1     5   ar
     8     4     5   ar
     9     4     9    1
