@<TRIPOS>MOLECULE
2T.xyz
 16 17 0 0 0
SMALL
GASTEIGER

@<TRIPOS>ATOM
      1 S           1.5051    0.3847   -1.5480 S.2     1  UNL1       -0.0961
      2 C           3.0513    0.4336   -0.8274 C.ar    1  UNL1       -0.0237
      3 C           2.9925    0.2242    0.5296 C.ar    1  UNL1       -0.0541
      4 C           1.6537    0.0212    0.9783 C.ar    1  UNL1       -0.0464
      5 C           0.7199    0.0797   -0.0447 C.ar    1  UNL1        0.0259
      6 C          -0.7199   -0.0797    0.0447 C.ar    1  UNL1        0.0259
      7 S          -1.5051   -0.3847    1.5480 S.2     1  UNL1       -0.0961
      8 C          -3.0513   -0.4336    0.8274 C.ar    1  UNL1       -0.0237
      9 C          -2.9925   -0.2242   -0.5296 C.ar    1  UNL1       -0.0541
     10 C          -1.6537   -0.0211   -0.9783 C.ar    1  UNL1       -0.0464
     11 H           3.9290    0.6134   -1.4330 H       1  UNL1        0.0693
     12 H           3.8642    0.2163    1.1724 H       1  UNL1        0.0623
     13 H           1.3990   -0.1602    2.0156 H       1  UNL1        0.0629
     14 H          -3.9290   -0.6134    1.4330 H       1  UNL1        0.0693
     15 H          -3.8642   -0.2163   -1.1724 H       1  UNL1        0.0623
     16 H          -1.3990    0.1602   -2.0156 H       1  UNL1        0.0629
@<TRIPOS>BOND
     1    16    10    1
     2     1     2   ar
     3     1     5   ar
     4    11     2    1
     5    15     9    1
     6    10     9   ar
     7    10     6   ar
     8     2     3   ar
     9     9     8   ar
    10     5     6    1
    11     5     4   ar
    12     6     7   ar
    13     3     4   ar
    14     3    12    1
    15     8    14    1
    16     8     7   ar
    17     4    13    1
