@<TRIPOS>MOLECULE
3T.xyz
 23 25 0 0 0
SMALL
GASTEIGER

@<TRIPOS>ATOM
      1 C           4.9277    0.2017   -0.8177 C.ar    1  UNL1       -0.0541
      2 C           4.7216    1.5593   -0.8708 C.ar    1  UNL1       -0.0237
      3 S           3.0819    1.9652   -0.6311 S.2     1  UNL1       -0.0961
      4 C           2.6100    0.3184   -0.4497 C.ar    1  UNL1        0.0259
      5 C           3.7152   -0.5097   -0.5759 C.ar    1  UNL1       -0.0464
      6 C           1.2399   -0.0949   -0.2014 C.ar    1  UNL1        0.0265
      7 C           0.7839   -1.3912   -0.0449 C.ar    1  UNL1       -0.0458
      8 C          -0.6224   -1.4644    0.1876 C.ar    1  UNL1       -0.0458
      9 C          -1.2330   -0.2237    0.2075 C.ar    1  UNL1        0.0265
     10 S          -0.0677    1.0076   -0.0597 S.2     1  UNL1       -0.0872
     11 C          -2.6446    0.0449    0.4191 C.ar    1  UNL1        0.0259
     12 C          -3.6422   -0.8927    0.6404 C.ar    1  UNL1       -0.0464
     13 C          -4.9335   -0.3117    0.8126 C.ar    1  UNL1       -0.0541
     14 C          -4.8937    1.0587    0.7188 C.ar    1  UNL1       -0.0237
     15 S          -3.3137    1.6322    0.4263 S.2     1  UNL1       -0.0961
     16 H           5.8986   -0.2610   -0.9455 H       1  UNL1        0.0623
     17 H           5.4550    2.3359   -1.0391 H       1  UNL1        0.0693
     18 H           3.6691   -1.5887   -0.4997 H       1  UNL1        0.0629
     19 H           1.4219   -2.2647   -0.0926 H       1  UNL1        0.0629
     20 H          -1.1501   -2.3986    0.3326 H       1  UNL1        0.0629
     21 H          -3.4652   -1.9601    0.6798 H       1  UNL1        0.0629
     22 H          -5.8420   -0.8722    0.9955 H       1  UNL1        0.0623
     23 H          -5.7169    1.7543    0.8079 H       1  UNL1        0.0693
@<TRIPOS>BOND
     1    17     2    1
     2    16     1    1
     3     2     1   ar
     4     2     3   ar
     5     1     5   ar
     6     3     4   ar
     7     5    18    1
     8     5     4   ar
     9     4     6    1
    10     6    10   ar
    11     6     7   ar
    12    19     7    1
    13    10     9   ar
    14     7     8   ar
    15     8     9   ar
    16     8    20    1
    17     9    11    1
    18    11    15   ar
    19    11    12   ar
    20    15    14   ar
    21    12    21    1
    22    12    13   ar
    23    14    23    1
    24    14    13   ar
    25    13    22    1
