@<TRIPOS>MOLECULE
4T.xyz
 30 33 0 0 0
SMALL
GASTEIGER

@<TRIPOS>ATOM
      1 C           6.0726    0.7785    2.5283 C.ar    1  UNL1       -0.0237
      2 C           6.6182    0.5546    1.2871 C.ar    1  UNL1       -0.0541
      3 C           5.6150    0.3081    0.3034 C.ar    1  UNL1       -0.0464
      4 C           4.3260    0.3489    0.8134 C.ar    1  UNL1        0.0259
      5 S           4.3688    0.6912    2.5010 S.2     1  UNL1       -0.0961
      6 C           3.0934    0.1406    0.0739 C.ar    1  UNL1        0.0265
      7 C           2.9770   -0.1369   -1.2760 C.ar    1  UNL1       -0.0458
      8 C           1.6227   -0.2876   -1.7006 C.ar    1  UNL1       -0.0458
      9 C           0.7119   -0.1244   -0.6728 C.ar    1  UNL1        0.0265
     10 S           1.5373    0.2108    0.7942 S.2     1  UNL1       -0.0872
     11 C          -0.7341   -0.2141   -0.7727 C.ar    1  UNL1        0.0265
     12 C          -1.4685   -0.4795   -1.9142 C.ar    1  UNL1       -0.0458
     13 C          -2.8766   -0.5003   -1.6810 C.ar    1  UNL1       -0.0458
     14 C          -3.2091   -0.2506   -0.3625 C.ar    1  UNL1        0.0265
     15 S          -1.7874    0.0048    0.5650 S.2     1  UNL1       -0.0872
     16 C          -4.5306   -0.1939    0.2343 C.ar    1  UNL1        0.0259
     17 C          -4.8634    0.0566    1.5565 C.ar    1  UNL1       -0.0464
     18 C          -6.2696    0.0370    1.7954 C.ar    1  UNL1       -0.0541
     19 C          -6.9801   -0.2282    0.6493 C.ar    1  UNL1       -0.0237
     20 S          -5.9568   -0.4506   -0.6983 S.2     1  UNL1       -0.0961
     21 H           6.5916    0.9899    3.4531 H       1  UNL1        0.0693
     22 H           7.6833    0.5663    1.0914 H       1  UNL1        0.0623
     23 H           5.8438    0.1095   -0.7360 H       1  UNL1        0.0629
     24 H           3.8213   -0.2315   -1.9472 H       1  UNL1        0.0629
     25 H           1.3447   -0.5071   -2.7238 H       1  UNL1        0.0629
     26 H          -1.0291   -0.6547   -2.8881 H       1  UNL1        0.0629
     27 H          -3.6032   -0.6925   -2.4613 H       1  UNL1        0.0629
     28 H          -4.1342    0.2486    2.3346 H       1  UNL1        0.0629
     29 H          -6.7316    0.2092    2.7599 H       1  UNL1        0.0623
     30 H          -8.0530   -0.3026    0.5369 H       1  UNL1        0.0693
@<TRIPOS>BOND
     1    26    12    1
     2    25     8    1
     3    27    13    1
     4    24     7    1
     5    12    13   ar
     6    12    11   ar
     7     8     7   ar
     8     8     9   ar
     9    13    14   ar
    10     7     6   ar
    11    11     9    1
    12    11    15   ar
    13    23     3    1
    14    20    16   ar
    15    20    19   ar
    16     9    10   ar
    17    14    16    1
    18    14    15   ar
    19     6    10   ar
    20     6     4    1
    21    16    17   ar
    22     3     4   ar
    23     3     2   ar
    24    30    19    1
    25    19    18   ar
    26     4     5   ar
    27    22     2    1
    28     2     1   ar
    29    17    18   ar
    30    17    28    1
    31    18    29    1
    32     5     1   ar
    33     1    21    1
