@<TRIPOS>MOLECULE
5T.xyz
 37 41 0 0 0
SMALL
GASTEIGER

@<TRIPOS>ATOM
      1 C          -7.9589    0.0310   -1.9382 C.ar    1  UNL1       -0.0541
      2 C          -8.7670   -0.3637   -0.8990 C.ar    1  UNL1       -0.0237
      3 S          -7.8666   -0.7486    0.4986 S.2     1  UNL1       -0.0961
      4 C          -6.3644   -0.3914   -0.2665 C.ar    1  UNL1        0.0259
      5 C          -6.5796    0.0149   -1.5744 C.ar    1  UNL1       -0.0464
      6 C          -5.1011   -0.5250    0.4348 C.ar    1  UNL1        0.0265
      7 C          -4.8863   -0.9302    1.7390 C.ar    1  UNL1       -0.0458
      8 C          -3.5048   -0.9445    2.0978 C.ar    1  UNL1       -0.0458
      9 C          -2.6728   -0.5503    1.0657 C.ar    1  UNL1        0.0265
     10 S          -3.6035   -0.1697   -0.3257 S.2     1  UNL1       -0.0872
     11 C          -1.2242   -0.4573    1.1068 C.ar    1  UNL1        0.0265
     12 C          -0.4082   -0.7455    2.1856 C.ar    1  UNL1       -0.0458
     13 C           0.9781   -0.5533    1.9055 C.ar    1  UNL1       -0.0458
     14 C           1.2126   -0.1194    0.6139 C.ar    1  UNL1        0.0265
     15 S          -0.2727    0.0443   -0.2312 S.2     1  UNL1       -0.0872
     16 C           2.4860    0.1771   -0.0152 C.ar    1  UNL1        0.0265
     17 C           2.7206    0.6111   -1.3067 C.ar    1  UNL1       -0.0458
     18 C           4.1071    0.8031   -1.5866 C.ar    1  UNL1       -0.0458
     19 C           4.9229    0.5149   -0.5076 C.ar    1  UNL1        0.0265
     20 S           3.9712    0.0134    0.8301 S.2     1  UNL1       -0.0872
     21 C           6.3717    0.6080   -0.4664 C.ar    1  UNL1        0.0259
     22 C           7.2060    1.0032   -1.5013 C.ar    1  UNL1       -0.0464
     23 C           8.5877    0.9904   -1.1472 C.ar    1  UNL1       -0.0541
     24 C           8.7786    0.5851    0.1519 C.ar    1  UNL1       -0.0237
     25 S           7.3038    0.2255    0.9308 S.2     1  UNL1       -0.0961
     26 H          -8.3343    0.3180   -2.9128 H       1  UNL1        0.0623
     27 H          -9.8453   -0.4451   -0.8920 H       1  UNL1        0.0693
     28 H          -5.7852    0.2933   -2.2565 H       1  UNL1        0.0629
     29 H          -5.6784   -1.2092    2.4234 H       1  UNL1        0.0629
     30 H          -3.1530   -1.2356    3.0796 H       1  UNL1        0.0629
     31 H          -0.7746   -1.0827    3.1471 H       1  UNL1        0.0629
     32 H           1.7596   -0.7312    2.6346 H       1  UNL1        0.0629
     33 H           1.9394    0.7890   -2.0360 H       1  UNL1        0.0629
     34 H           4.4740    1.1403   -2.5478 H       1  UNL1        0.0629
     35 H           6.8505    1.2935   -2.4819 H       1  UNL1        0.0629
     36 H           9.3968    1.2646   -1.8131 H       1  UNL1        0.0623
     37 H           9.7143    0.4821    0.6841 H       1  UNL1        0.0693
@<TRIPOS>BOND
     1    26     1    1
     2    34    18    1
     3    35    22    1
     4    28     5    1
     5    33    17    1
     6     1     5   ar
     7     1     2   ar
     8    36    23    1
     9    18    17   ar
    10    18    19   ar
    11     5     4   ar
    12    22    23   ar
    13    22    21   ar
    14    17    16   ar
    15    23    24   ar
    16     2    27    1
    17     2     3   ar
    18    19    21    1
    19    19    20   ar
    20    21    25   ar
    21    10     6   ar
    22    10     9   ar
    23     4     6    1
    24     4     3   ar
    25    15    14   ar
    26    15    11   ar
    27    16    14    1
    28    16    20   ar
    29    24    37    1
    30    24    25   ar
    31     6     7   ar
    32    14    13   ar
    33     9    11    1
    34     9     8   ar
    35    11    12   ar
    36     7     8   ar
    37     7    29    1
    38    13    12   ar
    39    13    32    1
    40     8    30    1
    41    12    31    1
