@<TRIPOS>MOLECULE
6T.xyz
 44 49 0 0 0
SMALL
GASTEIGER

@<TRIPOS>ATOM
      1 C         -10.5577    0.7057   -0.3803 C.ar    1  UNL1       -0.0541
      2 C         -10.9560   -0.4896   -0.9291 C.ar    1  UNL1       -0.0237
      3 S          -9.6290   -1.5023   -1.2836 S.2     1  UNL1       -0.0961
      4 C          -8.4854   -0.3506   -0.7043 C.ar    1  UNL1        0.0259
      5 C          -9.1392    0.7849   -0.2515 C.ar    1  UNL1       -0.0464
      6 C          -7.0589   -0.6162   -0.7257 C.ar    1  UNL1        0.0265
      7 C          -6.4073   -1.7489   -1.1774 C.ar    1  UNL1       -0.0458
      8 C          -4.9882   -1.6660   -1.0469 C.ar    1  UNL1       -0.0458
      9 C          -4.5651   -0.4703   -0.4963 C.ar    1  UNL1        0.0265
     10 S          -5.9173    0.5297   -0.1491 S.2     1  UNL1       -0.0872
     11 C          -3.2070   -0.0416   -0.2187 C.ar    1  UNL1        0.0265
     12 C          -2.7839    1.1541    0.3319 C.ar    1  UNL1       -0.0458
     13 C          -1.3648    1.2372    0.4625 C.ar    1  UNL1       -0.0458
     14 C          -0.7131    0.1045    0.0107 C.ar    1  UNL1        0.0265
     15 S          -1.8547   -1.0415   -0.5659 S.2     1  UNL1       -0.0872
     16 C           0.7131   -0.1613   -0.0107 C.ar    1  UNL1        0.0265
     17 C           1.3648   -1.2940   -0.4625 C.ar    1  UNL1       -0.0458
     18 C           2.7839   -1.2108   -0.3319 C.ar    1  UNL1       -0.0458
     19 C           3.2070   -0.0152    0.2187 C.ar    1  UNL1        0.0265
     20 S           1.8547    0.9847    0.5659 S.2     1  UNL1       -0.0872
     21 C           4.5651    0.4136    0.4963 C.ar    1  UNL1        0.0265
     22 C           4.9882    1.6092    1.0469 C.ar    1  UNL1       -0.0458
     23 C           6.4073    1.6921    1.1774 C.ar    1  UNL1       -0.0458
     24 C           7.0589    0.5594    0.7257 C.ar    1  UNL1        0.0265
     25 S           5.9173   -0.5864    0.1491 S.2     1  UNL1       -0.0872
     26 C           8.4854    0.2938    0.7043 C.ar    1  UNL1        0.0259
     27 C           9.1392   -0.8417    0.2515 C.ar    1  UNL1       -0.0464
     28 C          10.5577   -0.7625    0.3803 C.ar    1  UNL1       -0.0541
     29 C          10.9560    0.4328    0.9291 C.ar    1  UNL1       -0.0237
     30 S           9.6290    1.4455    1.2836 S.2     1  UNL1       -0.0961
     31 H         -11.2466    1.4874   -0.0844 H       1  UNL1        0.0623
     32 H         -11.9642   -0.8190   -1.1400 H       1  UNL1        0.0693
     33 H          -8.6308    1.6486    0.1598 H       1  UNL1        0.0629
     34 H          -6.9133   -2.6140   -1.5891 H       1  UNL1        0.0629
     35 H          -4.3200   -2.4627   -1.3508 H       1  UNL1        0.0629
     36 H          -3.4524    1.9506    0.6356 H       1  UNL1        0.0629
     37 H          -0.8595    2.1025    0.8742 H       1  UNL1        0.0629
     38 H           0.8595   -2.1593   -0.8742 H       1  UNL1        0.0629
     39 H           3.4524   -2.0074   -0.6356 H       1  UNL1        0.0629
     40 H           4.3200    2.4059    1.3508 H       1  UNL1        0.0629
     41 H           6.9133    2.5572    1.5891 H       1  UNL1        0.0629
     42 H           8.6308   -1.7054   -0.1598 H       1  UNL1        0.0629
     43 H          11.2466   -1.5442    0.0844 H       1  UNL1        0.0623
     44 H          11.9642    0.7622    1.1400 H       1  UNL1        0.0693
@<TRIPOS>BOND
     1    34     7    1
     2    35     8    1
     3     3     2   ar
     4     3     4   ar
     5     7     8   ar
     6     7     6   ar
     7    32     2    1
     8     8     9   ar
     9     2     1   ar
    10    38    17    1
    11     6     4    1
    12     6    10   ar
    13     4     5   ar
    14    39    18    1
    15    15    11   ar
    16    15    14   ar
    17     9    11    1
    18     9    10   ar
    19    17    18   ar
    20    17    16   ar
    21     1     5   ar
    22     1    31    1
    23    18    19   ar
    24     5    33    1
    25    11    12   ar
    26    42    27    1
    27    16    14    1
    28    16    20   ar
    29    14    13   ar
    30    43    28    1
    31    25    21   ar
    32    25    24   ar
    33    19    21    1
    34    19    20   ar
    35    27    28   ar
    36    27    26   ar
    37    12    13   ar
    38    12    36    1
    39    28    29   ar
    40    13    37    1
    41    21    22   ar
    42    26    24    1
    43    26    30   ar
    44    24    23   ar
    45    29    44    1
    46    29    30   ar
    47    22    23   ar
    48    22    40    1
    49    23    41    1
