@<TRIPOS>MOLECULE
7T.xyz
 51 57 0 0 0
SMALL
GASTEIGER

@<TRIPOS>ATOM
      1 C         -12.1446    2.5996   -0.0125 C.ar    1  UNL1       -0.0237
      2 C         -12.5105    1.3938    0.5359 C.ar    1  UNL1       -0.0541
      3 C         -11.3805    0.5597    0.7851 C.ar    1  UNL1       -0.0464
      4 C         -10.1769    1.1452    0.4222 C.ar    1  UNL1        0.0259
      5 S         -10.4555    2.7183   -0.2220 S.2     1  UNL1       -0.0961
      6 C          -8.8541    0.5586    0.5478 C.ar    1  UNL1        0.0265
      7 C          -8.5500   -0.6927    1.0524 C.ar    1  UNL1       -0.0458
      8 C          -7.1509   -0.9755    1.0413 C.ar    1  UNL1       -0.0458
      9 C          -6.3947    0.0619    0.5280 C.ar    1  UNL1        0.0265
     10 S          -7.4156    1.3637    0.0693 S.2     1  UNL1       -0.0872
     11 C          -4.9545    0.1270    0.3647 C.ar    1  UNL1        0.0265
     12 C          -4.1991    1.1650   -0.1486 C.ar    1  UNL1       -0.0458
     13 C          -2.7996    0.8840   -0.1606 C.ar    1  UNL1       -0.0458
     14 C          -2.4952   -0.3669    0.3438 C.ar    1  UNL1        0.0265
     15 S          -3.9327   -1.1748    0.8233 S.2     1  UNL1       -0.0872
     16 C          -1.1893   -0.9837    0.4837 C.ar    1  UNL1        0.0265
     17 C          -0.8842   -2.2344    0.9878 C.ar    1  UNL1       -0.0458
     18 C           0.5156   -2.5139    0.9752 C.ar    1  UNL1       -0.0458
     19 C           1.2710   -1.4754    0.4617 C.ar    1  UNL1        0.0265
     20 S           0.2474   -0.1755    0.0042 S.2     1  UNL1       -0.0872
     21 C           2.7152   -1.4445    0.3127 C.ar    1  UNL1        0.0265
     22 C           3.6029   -2.4476    0.6567 C.ar    1  UNL1       -0.0458
     23 C           4.9626   -2.1089    0.3845 C.ar    1  UNL1       -0.0458
     24 C           5.1051   -0.8487   -0.1660 C.ar    1  UNL1        0.0265
     25 S           3.5677   -0.1044   -0.3387 S.2     1  UNL1       -0.0872
     26 C           6.3275   -0.1778   -0.5670 C.ar    1  UNL1        0.0265
     27 C           6.4693    1.0826   -1.1175 C.ar    1  UNL1       -0.0458
     28 C           7.8286    1.4226   -1.3903 C.ar    1  UNL1       -0.0458
     29 C           8.7162    0.4199   -1.0464 C.ar    1  UNL1        0.0265
     30 S           7.8656   -0.9220   -0.3946 S.2     1  UNL1       -0.0872
     31 C          10.1611    0.4163   -1.1809 C.ar    1  UNL1        0.0259
     32 C          11.0515   -0.5889   -0.8363 C.ar    1  UNL1       -0.0464
     33 C          12.4111   -0.2527   -1.1075 C.ar    1  UNL1       -0.0541
     34 C          12.5288    1.0029   -1.6537 C.ar    1  UNL1       -0.0237
     35 S          11.0123    1.7641   -1.8354 S.2     1  UNL1       -0.0961
     36 H         -12.7876    3.4196   -0.3014 H       1  UNL1        0.0693
     37 H         -13.5367    1.1208    0.7489 H       1  UNL1        0.0623
     38 H         -11.4612   -0.4308    1.2148 H       1  UNL1        0.0629
     39 H          -9.2909   -1.3915    1.4199 H       1  UNL1        0.0629
     40 H          -6.7333   -1.9086    1.3997 H       1  UNL1        0.0629
     41 H          -4.6172    2.0982   -0.5069 H       1  UNL1        0.0629
     42 H          -2.0597    1.5847   -0.5288 H       1  UNL1        0.0629
     43 H          -1.6240   -2.9349    1.3559 H       1  UNL1        0.0629
     44 H           0.9346   -3.4460    1.3329 H       1  UNL1        0.0629
     45 H           3.3058   -3.3951    1.0885 H       1  UNL1        0.0629
     46 H           5.7911   -2.7758    0.5908 H       1  UNL1        0.0629
     47 H           5.6408    1.7496   -1.3237 H       1  UNL1        0.0629
     48 H           8.1248    2.3709   -1.8223 H       1  UNL1        0.0629
     49 H          10.7523   -1.5363   -0.4044 H       1  UNL1        0.0629
     50 H          13.2560   -0.9012   -0.9107 H       1  UNL1        0.0623
     51 H          13.4335    1.5123   -1.9559 H       1  UNL1        0.0693
@<TRIPOS>BOND
     1    51    34    1
     2    35    34   ar
     3    35    31   ar
     4    48    28    1
     5    34    33   ar
     6    28    27   ar
     7    28    29   ar
     8    47    27    1
     9    31    29    1
    10    31    32   ar
    11    27    26   ar
    12    33    50    1
    13    33    32   ar
    14    29    30   ar
    15    32    49    1
    16    26    30   ar
    17    26    24    1
    18    42    13    1
    19    41    12    1
    20    25    24   ar
    21    25    21   ar
    22    36     1    1
    23     5     1   ar
    24     5     4   ar
    25    24    23   ar
    26    13    12   ar
    27    13    14   ar
    28    12    11   ar
    29     1     2   ar
    30    20    19   ar
    31    20    16   ar
    32    10     9   ar
    33    10     6   ar
    34    21    19    1
    35    21    22   ar
    36    14    16    1
    37    14    15   ar
    38    11     9    1
    39    11    15   ar
    40    23    46    1
    41    23    22   ar
    42     4     6    1
    43     4     3   ar
    44    19    18   ar
    45    16    17   ar
    46     9     8   ar
    47     2    37    1
    48     2     3   ar
    49     6     7   ar
    50    22    45    1
    51     3    38    1
    52    18    17   ar
    53    18    44    1
    54    17    43    1
    55     8     7   ar
    56     8    40    1
    57     7    39    1
