@<TRIPOS>MOLECULE
8T.xyz
 58 65 0 0 0
SMALL
GASTEIGER

@<TRIPOS>ATOM
      1 C          13.4847   -0.5353   -3.9881 C.ar    1  UNL1       -0.0237
      2 C          12.3226   -0.7162   -4.6992 C.ar    1  UNL1       -0.0541
      3 C          11.1671   -0.5645   -3.8765 C.ar    1  UNL1       -0.0464
      4 C          11.4715   -0.2713   -2.5562 C.ar    1  UNL1        0.0259
      5 S          13.1797   -0.1864   -2.3457 S.2     1  UNL1       -0.0961
      6 C          10.5557   -0.0530   -1.4519 C.ar    1  UNL1        0.0265
      7 C          10.8590    0.2394   -0.1351 C.ar    1  UNL1       -0.0458
      8 C           9.6994    0.3902    0.6836 C.ar    1  UNL1       -0.0458
      9 C           8.5177    0.2121   -0.0126 C.ar    1  UNL1        0.0265
     10 S           8.8536   -0.1371   -1.6594 S.2     1  UNL1       -0.0872
     11 C           7.1720    0.2980    0.5265 C.ar    1  UNL1        0.0265
     12 C           6.8227    0.5738    1.8360 C.ar    1  UNL1       -0.0458
     13 C           5.4111    0.5871    2.0474 C.ar    1  UNL1       -0.0458
     14 C           4.6906    0.3214    0.8978 C.ar    1  UNL1        0.0265
     15 S           5.7597    0.0604   -0.4199 S.2     1  UNL1       -0.0872
     16 C           3.2502    0.2535    0.7372 C.ar    1  UNL1        0.0265
     17 C           2.5304   -0.0124   -0.4130 C.ar    1  UNL1       -0.0458
     18 C           1.1185    0.0006   -0.2032 C.ar    1  UNL1       -0.0458
     19 C           0.7690    0.2763    1.1058 C.ar    1  UNL1        0.0265
     20 S           2.1803    0.5144    2.0549 S.2     1  UNL1       -0.0872
     21 C          -0.5610    0.3697    1.6780 C.ar    1  UNL1        0.0265
     22 C          -0.9113    0.6454    2.9868 C.ar    1  UNL1       -0.0458
     23 C          -2.3234    0.6580    3.1949 C.ar    1  UNL1       -0.0458
     24 C          -3.0432    0.3920    2.0443 C.ar    1  UNL1        0.0265
     25 S          -1.9715    0.1316    0.7288 S.2     1  UNL1       -0.0872
     26 C          -4.4888    0.3318    1.9199 C.ar    1  UNL1        0.0265
     27 C          -5.4136    0.5293    2.9291 C.ar    1  UNL1       -0.0458
     28 C          -6.7636    0.4016    2.4834 C.ar    1  UNL1       -0.0458
     29 C          -6.8616    0.1074    1.1361 C.ar    1  UNL1        0.0265
     30 S          -5.2952   -0.0068    0.4428 S.2     1  UNL1       -0.0872
     31 C          -8.0625   -0.0913    0.3467 C.ar    1  UNL1        0.0265
     32 C          -8.1607   -0.3856   -1.0006 C.ar    1  UNL1       -0.0458
     33 C          -9.5108   -0.5132   -1.4460 C.ar    1  UNL1       -0.0458
     34 C         -10.4355   -0.3157   -0.4367 C.ar    1  UNL1        0.0265
     35 S          -9.6288    0.0230    1.0402 S.2     1  UNL1       -0.0872
     36 C         -11.8814   -0.3759   -0.5611 C.ar    1  UNL1        0.0259
     37 C         -12.6030   -0.6426   -1.7149 C.ar    1  UNL1       -0.0464
     38 C         -14.0148   -0.6310   -1.5117 C.ar    1  UNL1       -0.0541
     39 C         -14.3409   -0.3554   -0.2055 C.ar    1  UNL1       -0.0237
     40 S         -12.9551   -0.1142    0.7602 S.2     1  UNL1       -0.0961
     41 H          14.5009   -0.5912   -4.3536 H       1  UNL1        0.0693
     42 H          12.2979   -0.9461   -5.7573 H       1  UNL1        0.0623
     43 H          10.1563   -0.6691   -4.2522 H       1  UNL1        0.0629
     44 H          11.8686    0.3446    0.2434 H       1  UNL1        0.0629
     45 H           9.7491    0.6204    1.7404 H       1  UNL1        0.0629
     46 H           7.5397    0.7613    2.6254 H       1  UNL1        0.0629
     47 H           4.9594    0.7858    3.0119 H       1  UNL1        0.0629
     48 H           2.9824   -0.2110   -1.3774 H       1  UNL1        0.0629
     49 H           0.4022   -0.1873   -0.9941 H       1  UNL1        0.0629
     50 H          -0.1952    0.8332    3.7777 H       1  UNL1        0.0629
     51 H          -2.7764    0.8564    4.1582 H       1  UNL1        0.0629
     52 H          -5.1499    0.7575    3.9542 H       1  UNL1        0.0629
     53 H          -7.6175    0.5241    3.1389 H       1  UNL1        0.0629
     54 H          -7.3070   -0.5081   -1.6565 H       1  UNL1        0.0629
     55 H          -9.7752   -0.7414   -2.4709 H       1  UNL1        0.0629
     56 H         -12.1465   -0.8405   -2.6766 H       1  UNL1        0.0629
     57 H         -14.7500   -0.8156   -2.2854 H       1  UNL1        0.0623
     58 H         -15.3276   -0.2834    0.2310 H       1  UNL1        0.0693
@<TRIPOS>BOND
     1    42     2    1
     2     2     1   ar
     3     2     3   ar
     4    41     1    1
     5    43     3    1
     6     1     5   ar
     7     3     4   ar
     8    56    37    1
     9     4     5   ar
    10     4     6    1
    11    55    33    1
    12    57    38    1
    13    37    38   ar
    14    37    36   ar
    15    10     6   ar
    16    10     9   ar
    17    54    32    1
    18    38    39   ar
    19     6     7   ar
    20    33    32   ar
    21    33    34   ar
    22    48    17    1
    23    32    31   ar
    24    49    18    1
    25    36    34    1
    26    36    40   ar
    27    34    35   ar
    28    15    11   ar
    29    15    14   ar
    30    17    18   ar
    31    17    16   ar
    32    39    58    1
    33    39    40   ar
    34    18    19   ar
    35     7    44    1
    36     7     8   ar
    37     9    11    1
    38     9     8   ar
    39    31    35   ar
    40    31    29    1
    41    30    29   ar
    42    30    26   ar
    43    11    12   ar
    44     8    45    1
    45    25    21   ar
    46    25    24   ar
    47    16    14    1
    48    16    20   ar
    49    14    13   ar
    50    19    21    1
    51    19    20   ar
    52    29    28   ar
    53    21    22   ar
    54    12    13   ar
    55    12    46    1
    56    26    24    1
    57    26    27   ar
    58    24    23   ar
    59    13    47    1
    60    28    27   ar
    61    28    53    1
    62    27    52    1
    63    22    23   ar
    64    22    50    1
    65    23    51    1
