@<TRIPOS>MOLECULE
9T.xyz
 65 73 0 0 0
SMALL
GASTEIGER

@<TRIPOS>ATOM
      1 C          16.4210    0.4940   -0.9010 C.ar    1  UNL1       -0.0237
      2 C          16.3105    0.3507    0.4618 C.ar    1  UNL1       -0.0541
      3 C          14.9493    0.2526    0.8761 C.ar    1  UNL1       -0.0464
      4 C          14.0514    0.3252   -0.1778 C.ar    1  UNL1        0.0259
      5 S          14.8958    0.5086   -1.6671 S.2     1  UNL1       -0.0961
      6 C          12.6052    0.2490   -0.0892 C.ar    1  UNL1        0.0265
      7 C          11.8670   -0.1646    1.0043 C.ar    1  UNL1       -0.0458
      8 C          10.4588   -0.1192    0.7758 C.ar    1  UNL1       -0.0458
      9 C          10.1318    0.3315   -0.4900 C.ar    1  UNL1        0.0265
     10 S          11.5588    0.6926   -1.3745 S.2     1  UNL1       -0.0872
     11 C           8.8119    0.5049   -1.0668 C.ar    1  UNL1        0.0265
     12 C           8.4858    0.8980   -2.3516 C.ar    1  UNL1       -0.0458
     13 C           7.0773    0.9629   -2.5738 C.ar    1  UNL1       -0.0458
     14 C           6.3364    0.6193   -1.4577 C.ar    1  UNL1        0.0265
     15 S           7.3838    0.2220   -0.1569 S.2     1  UNL1       -0.0872
     16 C           4.8883    0.5820   -1.3560 C.ar    1  UNL1        0.0265
     17 C           3.9825    0.8175   -2.3743 C.ar    1  UNL1       -0.0458
     18 C           2.6239    0.7056   -1.9511 C.ar    1  UNL1       -0.0458
     19 C           2.5008    0.3852   -0.6118 C.ar    1  UNL1        0.0265
     20 S           4.0540    0.2296    0.1025 S.2     1  UNL1       -0.0872
     21 C           1.2849    0.1900    0.1550 C.ar    1  UNL1        0.0265
     22 C           1.1576   -0.0209    1.5157 C.ar    1  UNL1       -0.0458
     23 C          -0.1995   -0.1724    1.9311 C.ar    1  UNL1       -0.0458
     24 C          -1.0988   -0.0754    0.8851 C.ar    1  UNL1        0.0265
     25 S          -0.2627    0.1949   -0.5890 S.2     1  UNL1       -0.0872
     26 C          -2.5426   -0.1893    0.9718 C.ar    1  UNL1        0.0265
     27 C          -3.2703   -0.6472    2.0548 C.ar    1  UNL1       -0.0458
     28 C          -4.6793   -0.6275    1.8287 C.ar    1  UNL1       -0.0458
     29 C          -5.0169   -0.1533    0.5747 C.ar    1  UNL1        0.0265
     30 S          -3.6004    0.2581   -0.3034 S.2     1  UNL1       -0.0872
     31 C          -6.3406    0.0086    0.0056 C.ar    1  UNL1        0.0265
     32 C          -6.6780    0.2762   -1.3083 C.ar    1  UNL1       -0.0458
     33 C          -8.0872    0.3732   -1.5120 C.ar    1  UNL1       -0.0458
     34 C          -8.8138    0.1778   -0.3523 C.ar    1  UNL1        0.0265
     35 S          -7.7576   -0.1174    0.9667 S.2     1  UNL1       -0.0872
     36 C         -10.2567    0.2224   -0.2190 C.ar    1  UNL1        0.0265
     37 C         -11.1494    0.7877   -1.1110 C.ar    1  UNL1       -0.0458
     38 C         -12.5083    0.6570   -0.6959 C.ar    1  UNL1       -0.0458
     39 C         -12.6386   -0.0063    0.5098 C.ar    1  UNL1        0.0265
     40 S         -11.0989   -0.4645    1.1090 S.2     1  UNL1       -0.0872
     41 C         -13.8769   -0.3130    1.1953 C.ar    1  UNL1        0.0259
     42 C         -15.1320   -0.4281    0.6194 C.ar    1  UNL1       -0.0464
     43 C         -16.1554   -0.7266    1.5668 C.ar    1  UNL1       -0.0541
     44 C         -15.6566   -0.8266    2.8442 C.ar    1  UNL1       -0.0237
     45 S         -13.9703   -0.5630    2.8944 S.2     1  UNL1       -0.0961
     46 H          17.3247    0.5910   -1.4869 H       1  UNL1        0.0693
     47 H          17.1620    0.3185    1.1307 H       1  UNL1        0.0623
     48 H          14.6512    0.1394    1.9112 H       1  UNL1        0.0629
     49 H          12.3058   -0.4970    1.9369 H       1  UNL1        0.0629
     50 H           9.7284   -0.4118    1.5208 H       1  UNL1        0.0629
     51 H           9.2172    1.1328   -3.1158 H       1  UNL1        0.0629
     52 H           6.6422    1.2535   -3.5218 H       1  UNL1        0.0629
     53 H           4.2661    1.0605   -3.3907 H       1  UNL1        0.0629
     54 H           1.7821    0.8586   -2.6158 H       1  UNL1        0.0629
     55 H           1.9952   -0.0639    2.2019 H       1  UNL1        0.0629
     56 H          -0.4884   -0.3390    2.9617 H       1  UNL1        0.0629
     57 H          -2.8237   -0.9920    2.9792 H       1  UNL1        0.0629
     58 H          -5.4033   -0.9554    2.5654 H       1  UNL1        0.0629
     59 H          -5.9538    0.3955   -2.1051 H       1  UNL1        0.0629
     60 H          -8.5356    0.5712   -2.4777 H       1  UNL1        0.0629
     61 H         -10.8517    1.2862   -2.0249 H       1  UNL1        0.0629
     62 H         -13.3468    1.0464   -1.2608 H       1  UNL1        0.0629
     63 H         -15.3159   -0.3140   -0.4420 H       1  UNL1        0.0629
     64 H         -17.2017   -0.8613    1.3216 H       1  UNL1        0.0623
     65 H         -16.2001   -1.0423    3.7539 H       1  UNL1        0.0693
@<TRIPOS>BOND
     1    52    13    1
     2    53    17    1
     3    51    12    1
     4    54    18    1
     5    13    12   ar
     6    13    14   ar
     7    60    33    1
     8    17    18   ar
     9    17    16   ar
    10    12    11   ar
    11    59    32    1
    12    61    37    1
    13    18    19   ar
    14     5     1   ar
    15     5     4   ar
    16    33    32   ar
    17    33    34   ar
    18    46     1    1
    19    14    16    1
    20    14    15   ar
    21    10     9   ar
    22    10     6   ar
    23    16    20   ar
    24    32    31   ar
    25    62    38    1
    26    37    38   ar
    27    37    36   ar
    28    11     9    1
    29    11    15   ar
    30     1     2   ar
    31    38    39   ar
    32    19    20   ar
    33    19    21    1
    34    25    21   ar
    35    25    24   ar
    36     9     8   ar
    37    63    42    1
    38    34    36    1
    39    34    35   ar
    40    30    29   ar
    41    30    26   ar
    42    36    40   ar
    43     4     6    1
    44     4     3   ar
    45     6     7   ar
    46    31    29    1
    47    31    35   ar
    48    21    22   ar
    49     2     3   ar
    50     2    47    1
    51    39    40   ar
    52    39    41    1
    53    29    28   ar
    54    42    41   ar
    55    42    43   ar
    56     8     7   ar
    57     8    50    1
    58     3    48    1
    59    24    26    1
    60    24    23   ar
    61    26    27   ar
    62     7    49    1
    63    41    45   ar
    64    64    43    1
    65    22    23   ar
    66    22    55    1
    67    43    44   ar
    68    28    27   ar
    69    28    58    1
    70    23    56    1
    71    27    57    1
    72    44    45   ar
    73    44    65    1
