@<TRIPOS>MOLECULE
molecule.pdb
 100 109 0 0 0
SMALL
GASTEIGER

@<TRIPOS>ATOM
1  C  1.9322  5.7874  -0.0564  C.3  0  P3G0  -0.0517
2  C1  3.3519  6.0897  -0.5827  C.3  0  P3G0  0.0163
3  C2  3.3170  6.5625  -2.0373  C.ar  0  P3G0  -0.0297
4  C3  2.7046  7.6920  -2.5730  C.ar  0  P3G0  -0.0572
5  C4  2.7991  7.9335  -3.9515  C.ar  0  P3G0  -0.0614
6  C5  3.5026  7.0502  -4.7808  C.ar  0  P3G0  -0.0612
7  C6  4.1219  5.9143  -4.2500  C.ar  0  P3G0  -0.0537
8  C7  4.0273  5.6712  -2.8738  C.ar  0  P3G0  -0.0136
9  C8  4.5640  4.5865  -2.0468  C.ar  0  P3G0  -0.0135
10  C9  5.3368  3.4646  -2.3715  C.ar  0  P3G0  -0.0520
11  C10  5.7137  2.5759  -1.3655  C.ar  0  P3G0  -0.0394
12  C11  5.3423  2.8015  -0.0242  C.ar  0  P3G0  0.0391
13  C12  4.5691  3.9356  0.3015  C.ar  0  P3G0  -0.0354
14  C13  4.1809  4.8096  -0.7051  C.ar  0  P3G0  -0.0279
15  N  5.7439  1.8919  0.9946  N.pl3  0  P3G0  -0.2692
16  C14  7.0594  1.3538  0.9919  C.ar  0  P3G0  0.0388
17  C15  7.2905  0.0109  1.3429  C.ar  0  P3G0  -0.0394
18  C16  8.5817  -0.5084  1.3470  C.ar  0  P3G0  -0.0523
19  C17  9.6967  0.2753  0.9878  C.ar  0  P3G0  -0.0178
20  C18  9.4493  1.6158  0.6296  C.ar  0  P3G0  -0.0523
21  C19  8.1642  2.1499  0.6372  C.ar  0  P3G0  -0.0394
22  C20  11.0672  -0.2847  0.9884  C.ar  0  P3G0  -0.0178
23  C21  11.3164  -1.6214  0.6174  C.ar  0  P3G0  -0.0523
24  C22  12.6014  -2.1556  0.6261  C.ar  0  P3G0  -0.0394
25  C23  13.7044  -1.3633  0.9947  C.ar  0  P3G0  0.0388
26  N1  15.0198  -1.9015  0.9984  N.pl3  0  P3G0  -0.2692
27  C24  15.9334  -1.5450  2.0303  C.ar  0  P3G0  0.0388
28  C25  15.5025  -1.4490  3.3665  C.ar  0  P3G0  -0.0400
29  C26  16.4017  -1.0934  4.3720  C.ar  0  P3G0  -0.0600
30  C27  17.7451  -0.8439  4.0714  C.ar  0  P3G0  -0.0616
31  C28  18.1781  -0.9469  2.7452  C.ar  0  P3G0  -0.0600
32  C29  17.2834  -1.2857  1.7298  C.ar  0  P3G0  -0.0400
33  C30  15.4264  -2.8008  -0.0275  C.ar  0  P3G0  0.0391
34  C31  16.1973  -3.9387  0.2907  C.ar  0  P3G0  -0.0354
35  C32  16.5902  -4.8025  -0.7228  C.ar  0  P3G0  -0.0279
36  C33  17.4180  -6.0842  -0.6092  C.3  0  P3G0  0.0163
37  C34  17.4605  -6.5421  -2.0684  C.ar  0  P3G0  -0.0297
38  C35  18.0751  -7.6664  -2.6124  C.ar  0  P3G0  -0.0572
39  C36  17.9876  -7.8937  -3.9938  C.ar  0  P3G0  -0.0614
40  C37  17.2887  -7.0018  -4.8176  C.ar  0  P3G0  -0.0612
41  C38  16.6671  -5.8711  -4.2785  C.ar  0  P3G0  -0.0537
42  C39  16.7548  -5.6419  -2.8994  C.ar  0  P3G0  -0.0136
43  C40  16.2144  -4.5655  -2.0642  C.ar  0  P3G0  -0.0135
44  C41  15.4438  -3.4399  -2.3814  C.ar  0  P3G0  -0.0520
45  C42  15.0621  -2.5613  -1.3683  C.ar  0  P3G0  -0.0394
46  C43  16.7194  -7.1288  0.2875  C.3  0  P3G0  -0.0517
47  C44  18.8351  -5.7880  -0.0724  C.3  0  P3G0  -0.0517
48  C45  13.4715  -0.0241  1.3585  C.ar  0  P3G0  -0.0394
49  C46  12.1803  0.4952  1.3614  C.ar  0  P3G0  -0.0523
50  C47  4.8254  1.5249  2.0184  C.ar  0  P3G0  0.0388
51  C48  5.2498  1.4162  3.3557  C.ar  0  P3G0  -0.0400
52  C49  4.3459  1.0503  4.3532  C.ar  0  P3G0  -0.0600
53  C50  3.0042  0.8028  4.0436  C.ar  0  P3G0  -0.0616
54  C51  2.5776  0.9184  2.7162  C.ar  0  P3G0  -0.0600
55  C52  3.4771  1.2677  1.7087  C.ar  0  P3G0  -0.0400
56  C53  4.0453  7.1253  0.3284  C.3  0  P3G0  -0.0517
57  H  1.4198  5.0547  -0.6962  H  0  P3G0  0.0241
58  H1  1.9731  5.3817  0.9661  H  0  P3G0  0.0241
59  H2  1.3234  6.7042  -0.0305  H  0  P3G0  0.0241
60  H3  2.1527  8.3894  -1.9350  H  0  P3G0  0.0621
61  H4  2.3207  8.8170  -4.3819  H  0  P3G0  0.0618
62  H5  3.5682  7.2516  -5.8533  H  0  P3G0  0.0618
63  H6  4.6702  5.2314  -4.9052  H  0  P3G0  0.0624
64  H7  5.6347  3.2657  -3.4048  H  0  P3G0  0.0624
65  H8  6.3039  1.6904  -1.6110  H  0  P3G0  0.0636
66  H9  4.2884  4.1092  1.3439  H  0  P3G0  0.0639
67  H10  6.4480  -0.6244  1.6243  H  0  P3G0  0.0636
68  H11  8.7284  -1.5482  1.6509  H  0  P3G0  0.0624
69  H12  10.2817  2.2550  0.3236  H  0  P3G0  0.0624
70  H13  8.0070  3.1935  0.3562  H  0  P3G0  0.0636
71  H14  10.4856  -2.2573  0.3006  H  0  P3G0  0.0624
72  H15  12.7601  -3.1962  0.3350  H  0  P3G0  0.0636
73  H16  14.4580  -1.6556  3.6097  H  0  P3G0  0.0636
74  H17  16.0500  -1.0269  5.4050  H  0  P3G0  0.0618
75  H18  18.4473  -0.5715  4.8628  H  0  P3G0  0.0618
76  H19  19.2224  -0.7446  2.4925  H  0  P3G0  0.0618
77  H20  17.6241  -1.3513  0.6942  H  0  P3G0  0.0636
78  H21  16.4723  -4.1231  1.3327  H  0  P3G0  0.0639
79  H22  18.6235  -8.3704  -1.9787  H  0  P3G0  0.0621
80  H23  18.4679  -8.7730  -4.4307  H  0  P3G0  0.0618
81  H24  17.2285  -7.1922  -5.8925  H  0  P3G0  0.0618
82  H25  16.1225  -5.1812  -4.9294  H  0  P3G0  0.0624
83  H26  15.1515  -3.2303  -3.4142  H  0  P3G0  0.0624
84  H27  14.4737  -1.6730  -1.6078  H  0  P3G0  0.0636
85  H28  16.6382  -6.7633  1.3228  H  0  P3G0  0.0241
86  H29  17.2915  -8.0691  0.3079  H  0  P3G0  0.0241
87  H30  15.7070  -7.3522  -0.0783  H  0  P3G0  0.0241
88  H31  19.3512  -5.0491  -0.7019  H  0  P3G0  0.0241
89  H32  18.7891  -5.3929  0.9540  H  0  P3G0  0.0241
90  H33  19.4433  -6.7054  -0.0527  H  0  P3G0  0.0241
91  H34  14.3126  0.6082  1.6507  H  0  P3G0  0.0636
92  H35  12.0321  1.5318  1.6753  H  0  P3G0  0.0624
93  H36  6.2929  1.6211  3.6059  H  0  P3G0  0.0636
94  H37  4.6925  0.9738  5.3872  H  0  P3G0  0.0618
95  H38  2.2983  0.5224  4.8288  H  0  P3G0  0.0618
96  H39  1.5348  0.7179  2.4565  H  0  P3G0  0.0618
97  H40  3.1415  1.3432  0.6721  H  0  P3G0  0.0636
98  H41  4.1213  6.7492  1.3603  H  0  P3G0  0.0241
99  H42  3.4726  8.0651  0.3555  H  0  P3G0  0.0241
100  H43  5.0595  7.3529  -0.0298  H  0  P3G0  0.0241
@<TRIPOS>BOND
     1    81    40    1
     2    62     6    1
     3    82    41    1
     4    63     7    1
     5    40    41   ar
     6    40    39   ar
     7     6     7   ar
     8     6     5   ar
     9    80    39    1
    10    61     5    1
    11    41    42   ar
    12     7     8   ar
    13    39    38   ar
    14     5     4   ar
    15    83    44    1
    16    64    10    1
    17    42    37   ar
    18    42    43    1
    19     8     3   ar
    20     8     9    1
    21    38    37   ar
    22    38    79    1
    23     4     3   ar
    24     4    60    1
    25    44    43   ar
    26    44    45   ar
    27    10     9   ar
    28    10    11   ar
    29    37    36    1
    30     3     2    1
    31    43    35   ar
    32     9    14   ar
    33    65    11    1
    34    84    45    1
    35    45    33   ar
    36    11    12   ar
    37    57     1    1
    38    88    47    1
    39    35    36    1
    40    35    34   ar
    41    14     2    1
    42    14    13   ar
    43    36    47    1
    44    36    46    1
    45     2     1    1
    46     2    56    1
    47    87    46    1
    48    47    90    1
    49    47    89    1
    50     1    59    1
    51     1    58    1
    52   100    56    1
    53    33    34   ar
    54    33    26    1
    55    12    13   ar
    56    12    15    1
    57    46    86    1
    58    46    85    1
    59    56    99    1
    60    56    98    1
    61    34    78    1
    62    13    66    1
    63    71    23    1
    64    72    24    1
    65    69    20    1
    66    70    21    1
    67    23    24   ar
    68    23    22   ar
    69    24    25   ar
    70    20    21   ar
    71    20    19   ar
    72    21    16   ar
    73    97    55    1
    74    77    32    1
    75    15    16    1
    76    15    50    1
    77    26    25    1
    78    26    27    1
    79    16    17   ar
    80    25    48   ar
    81    22    19    1
    82    22    49   ar
    83    19    18   ar
    84    17    18   ar
    85    17    67    1
    86    18    68    1
    87    48    49   ar
    88    48    91    1
    89    49    92    1
    90    55    50   ar
    91    55    54   ar
    92    32    27   ar
    93    32    31   ar
    94    50    51   ar
    95    27    28   ar
    96    96    54    1
    97    76    31    1
    98    54    53   ar
    99    31    30   ar
   100    51    93    1
   101    51    52   ar
   102    28    73    1
   103    28    29   ar
   104    53    52   ar
   105    53    95    1
   106    30    29   ar
   107    30    75    1
   108    52    94    1
   109    29    74    1
