@<TRIPOS>MOLECULE
molecule.pdb
 127 139 0 0 0
SMALL
GASTEIGER

@<TRIPOS>ATOM
1  C  19.0314  -1.0469  -0.4873  C.ar  0  P3G0  -0.0178
2  C1  17.9734  -1.6837  -1.1650  C.ar  0  P3G0  -0.0523
3  C2  16.6659  -1.2141  -1.0820  C.ar  0  P3G0  -0.0394
4  C3  16.3587  -0.0888  -0.2951  C.ar  0  P3G0  0.0388
5  C4  17.4048  0.5504  0.3956  C.ar  0  P3G0  -0.0394
6  C5  18.7116  0.0833  0.2905  C.ar  0  P3G0  -0.0523
7  N  15.0241  0.3896  -0.1991  N.pl3  0  P3G0  -0.2692
8  C6  13.9418  -0.5333  -0.1270  C.ar  0  P3G0  0.0388
9  C7  12.7546  -0.3061  -0.8445  C.ar  0  P3G0  -0.0397
10  C8  11.6955  -1.2077  -0.7633  C.ar  0  P3G0  -0.0553
11  C9  11.7780  -2.3713  0.0210  C.ar  0  P3G0  -0.0281
12  C10  12.9718  -2.5940  0.7250  C.ar  0  P3G0  -0.0553
13  C11  14.0328  -1.6913  0.6633  C.ar  0  P3G0  -0.0397
14  C12  10.6381  -3.4086  0.0135  C.3  0  P3G0  0.0716
15  C13  10.7060  -4.3896  1.2008  C.ar  0  P3G0  -0.0205
16  C14  10.5544  -4.1253  2.5594  C.ar  0  P3G0  -0.0565
17  C15  10.6404  -5.1834  3.4740  C.ar  0  P3G0  -0.0614
18  C16  10.8668  -6.4932  3.0301  C.ar  0  P3G0  -0.0612
19  C17  11.0120  -6.7654  1.6669  C.ar  0  P3G0  -0.0537
20  C18  10.9303  -5.7083  0.7522  C.ar  0  P3G0  -0.0129
21  C19  11.0431  -5.6957  -0.7108  C.ar  0  P3G0  -0.0129
22  C20  11.2801  -6.7346  -1.6192  C.ar  0  P3G0  -0.0537
23  C21  11.3402  -6.4395  -2.9841  C.ar  0  P3G0  -0.0612
24  C22  11.1685  -5.1241  -3.4359  C.ar  0  P3G0  -0.0614
25  C23  10.9350  -4.0829  -2.5277  C.ar  0  P3G0  -0.0565
26  C24  10.8663  -4.3726  -1.1675  C.ar  0  P3G0  -0.0205
27  C25  9.2411  -2.7577  0.0006  C.ar  0  P3G0  -0.0281
28  C26  8.9705  -1.6243  0.7872  C.ar  0  P3G0  -0.0553
29  C27  7.6914  -1.0781  0.8642  C.ar  0  P3G0  -0.0397
30  C28  6.6284  -1.6452  0.1396  C.ar  0  P3G0  0.0388
31  C29  6.8893  -2.7750  -0.6535  C.ar  0  P3G0  -0.0397
32  C30  8.1708  -3.3220  -0.7107  C.ar  0  P3G0  -0.0553
33  N1  5.3209  -1.0853  0.2074  N.pl3  0  P3G0  -0.2692
34  C31  4.1871  -1.9387  0.2842  C.ar  0  P3G0  0.0388
35  C32  3.0071  -1.6340  -0.4192  C.ar  0  P3G0  -0.0394
36  C33  1.8968  -2.4688  -0.3336  C.ar  0  P3G0  -0.0523
37  C34  1.9173  -3.6481  0.4367  C.ar  0  P3G0  -0.0178
38  C35  3.1080  -3.9465  1.1278  C.ar  0  P3G0  -0.0523
39  C36  4.2181  -3.1095  1.0640  C.ar  0  P3G0  -0.0394
40  C37  0.7353  -4.5384  0.5162  C.ar  0  P3G0  -0.0179
41  C38  -0.5706  -4.0107  0.5525  C.ar  0  P3G0  -0.0540
42  C39  -1.6838  -4.8494  0.6265  C.ar  0  P3G0  -0.0612
43  C40  -1.5204  -6.2374  0.6679  C.ar  0  P3G0  -0.0617
44  C41  -0.2311  -6.7773  0.6334  C.ar  0  P3G0  -0.0612
45  C42  0.8822  -5.9390  0.5578  C.ar  0  P3G0  -0.0540
46  C43  5.1528  0.3258  0.1965  C.ar  0  P3G0  0.0388
47  C44  5.9428  1.1385  -0.6371  C.ar  0  P3G0  -0.0394
48  C45  5.7830  2.5211  -0.6359  C.ar  0  P3G0  -0.0523
49  C46  4.8216  3.1522  0.1776  C.ar  0  P3G0  -0.0178
50  C47  4.0307  2.3264  1.0005  C.ar  0  P3G0  -0.0523
51  C48  4.1946  0.9444  1.0205  C.ar  0  P3G0  -0.0394
52  C49  4.6496  4.6240  0.1681  C.ar  0  P3G0  -0.0179
53  C50  5.7590  5.4842  0.0465  C.ar  0  P3G0  -0.0540
54  C51  5.5969  6.8704  0.0360  C.ar  0  P3G0  -0.0612
55  C52  4.3216  7.4327  0.1484  C.ar  0  P3G0  -0.0617
56  C53  3.2101  6.5932  0.2707  C.ar  0  P3G0  -0.0612
57  C54  3.3718  5.2069  0.2797  C.ar  0  P3G0  -0.0540
58  C55  14.7652  1.7874  -0.1803  C.ar  0  P3G0  0.0388
59  C56  15.4860  2.6663  -1.0095  C.ar  0  P3G0  -0.0394
60  C57  15.2290  4.0342  -0.9840  C.ar  0  P3G0  -0.0523
61  C58  14.2397  4.5842  -0.1459  C.ar  0  P3G0  -0.0178
62  C59  13.5214  3.6931  0.6748  C.ar  0  P3G0  -0.0523
63  C60  13.7788  2.3251  0.6664  C.ar  0  P3G0  -0.0394
64  C61  13.9646  6.0413  -0.1288  C.ar  0  P3G0  -0.0179
65  C62  13.6604  6.7088  1.0739  C.ar  0  P3G0  -0.0540
66  C63  13.4007  8.0801  1.0899  C.ar  0  P3G0  -0.0612
67  C64  13.4389  8.8197  -0.0961  C.ar  0  P3G0  -0.0617
68  C65  13.7396  8.1723  -1.2984  C.ar  0  P3G0  -0.0612
69  C66  13.9989  6.8009  -1.3147  C.ar  0  P3G0  -0.0540
70  C67  20.4233  -1.5454  -0.5878  C.ar  0  P3G0  -0.0179
71  C68  20.6986  -2.9264  -0.6371  C.ar  0  P3G0  -0.0540
72  C69  22.0096  -3.3957  -0.7326  C.ar  0  P3G0  -0.0612
73  C70  23.0795  -2.4967  -0.7798  C.ar  0  P3G0  -0.0617
74  C71  22.8237  -1.1230  -0.7311  C.ar  0  P3G0  -0.0612
75  C72  21.5127  -0.6533  -0.6372  C.ar  0  P3G0  -0.0540
76  H  18.1856  -2.5397  -1.8111  H  0  P3G0  0.0624
77  H1  15.8708  -1.7151  -1.6383  H  0  P3G0  0.0636
78  H2  17.1839  1.4134  1.0274  H  0  P3G0  0.0636
79  H3  19.4968  0.5805  0.8660  H  0  P3G0  0.0624
80  H4  12.6642  0.5857  -1.4685  H  0  P3G0  0.0636
81  H5  10.7823  -0.9972  -1.3252  H  0  P3G0  0.0621
82  H6  13.0733  -3.4837  1.3502  H  0  P3G0  0.0621
83  H7  14.9435  -1.8834  1.2347  H  0  P3G0  0.0636
84  H8  10.3713  -3.1083  2.9159  H  0  P3G0  0.0621
85  H9  10.5259  -4.9852  4.5427  H  0  P3G0  0.0618
86  H10  10.9273  -7.3084  3.7558  H  0  P3G0  0.0618
87  H11  11.1843  -7.7901  1.3259  H  0  P3G0  0.0624
88  H12  11.4192  -7.7624  -1.2722  H  0  P3G0  0.0624
89  H13  11.5254  -7.2402  -3.7048  H  0  P3G0  0.0618
90  H14  11.2210  -4.9071  -4.5059  H  0  P3G0  0.0618
91  H15  10.8083  -3.0593  -2.8901  H  0  P3G0  0.0621
92  H16  9.7775  -1.1536  1.3540  H  0  P3G0  0.0621
93  H17  7.5099  -0.2016  1.4901  H  0  P3G0  0.0636
94  H18  6.0798  -3.2267  -1.2308  H  0  P3G0  0.0636
95  H19  8.3408  -4.1996  -1.3379  H  0  P3G0  0.0621
96  H20  2.9700  -0.7403  -1.0458  H  0  P3G0  0.0636
97  H21  1.0068  -2.2237  -0.9191  H  0  P3G0  0.0624
98  H22  3.1514  -4.8309  1.7688  H  0  P3G0  0.0624
99  H23  5.1190  -3.3553  1.6300  H  0  P3G0  0.0636
100  H24  -0.7126  -2.9267  0.5540  H  0  P3G0  0.0624
101  H25  -2.6865  -4.4149  0.6621  H  0  P3G0  0.0618
102  H26  -2.3921  -6.8940  0.7267  H  0  P3G0  0.0618
103  H27  -0.0908  -7.8614  0.6554  H  0  P3G0  0.0618
104  H28  1.8823  -6.3767  0.4989  H  0  P3G0  0.0624
105  H29  6.6791  0.6754  -1.2975  H  0  P3G0  0.0636
106  H30  6.3880  3.1225  -1.3195  H  0  P3G0  0.0624
107  H31  3.3022  2.7805  1.6775  H  0  P3G0  0.0624
108  H32  3.5845  0.3326  1.6884  H  0  P3G0  0.0636
109  H33  6.7650  5.0600  -0.0097  H  0  P3G0  0.0624
110  H34  6.4746  7.5163  -0.0510  H  0  P3G0  0.0618
111  H35  4.1948  8.5182  0.1405  H  0  P3G0  0.0618
112  H36  2.2071  7.0210  0.3497  H  0  P3G0  0.0618
113  H37  2.4906  4.5629  0.3429  H  0  P3G0  0.0624
114  H38  16.2580  2.2694  -1.6721  H  0  P3G0  0.0636
115  H39  15.8220  4.6940  -1.6228  H  0  P3G0  0.0624
116  H40  12.7323  4.0774  1.3264  H  0  P3G0  0.0624
117  H41  13.2064  1.6591  1.3156  H  0  P3G0  0.0636
118  H42  13.6574  6.1497  2.0134  H  0  P3G0  0.0624
119  H43  13.1761  8.5767  2.0378  H  0  P3G0  0.0618
120  H44  13.2362  9.8936  -0.0834  H  0  P3G0  0.0618
121  H45  13.7638  8.7381  -2.2337  H  0  P3G0  0.0618
122  H46  14.2026  6.3031  -2.2664  H  0  P3G0  0.0624
123  H47  19.8746  -3.6417  -0.5683  H  0  P3G0  0.0624
124  H48  22.1976  -4.4723  -0.7602  H  0  P3G0  0.0618
125  H49  24.1061  -2.8644  -0.8541  H  0  P3G0  0.0618
126  H50  23.6513  -0.4101  -0.7765  H  0  P3G0  0.0618
127  H51  21.3261  0.4239  -0.6331  H  0  P3G0  0.0624
@<TRIPOS>BOND
     1    90    24    1
     2    89    23    1
     3    24    23   ar
     4    24    25   ar
     5    23    22   ar
     6    91    25    1
     7    25    26   ar
     8   122    69    1
     9    76     2    1
    10   121    68    1
    11    77     3    1
    12    22    88    1
    13    22    21   ar
    14    80     9    1
    15   106    48    1
    16   114    59    1
    17    81    10    1
    18   105    47    1
    19   115    60    1
    20    95    32    1
    21    26    21   ar
    22    26    14    1
    23     2     3   ar
    24     2     1   ar
    25     3     4   ar
    26    94    31    1
    27    69    68   ar
    28    69    64   ar
    29     9    10   ar
    30     9     8   ar
    31    68    67   ar
    32    59    60   ar
    33    59    58   ar
    34    10    11   ar
    35    48    47   ar
    36    48    49   ar
    37    60    61   ar
    38    96    35    1
    39    21    20    1
    40   124    72    1
    41    47    46   ar
    42    72    71   ar
    43    72    73   ar
    44   123    71    1
    45   125    73    1
    46   110    54    1
    47    97    36    1
    48    71    70   ar
    49    73    74   ar
    50    32    31   ar
    51    32    27   ar
    52    31    30   ar
    53    70     1    1
    54    70    75   ar
    55   109    53    1
    56    74    75   ar
    57    74   126    1
    58     1     6   ar
    59    54    53   ar
    60    54    55   ar
    61    75   127    1
    62    53    52   ar
    63     4     7    1
    64     4     5   ar
    65   111    55    1
    66     7     8    1
    67     7    58    1
    68     8    13   ar
    69    55    56   ar
    70    35    36   ar
    71    35    34   ar
    72    58    63   ar
    73    36    37   ar
    74    52    49    1
    75    52    57   ar
    76    11    14    1
    77    11    12   ar
    78    61    64    1
    79    61    62   ar
    80    49    50   ar
    81    14    27    1
    82    14    15    1
    83    56    57   ar
    84    56   112    1
    85    64    65   ar
    86    57   113    1
    87    27    28   ar
    88    46    33    1
    89    46    51   ar
    90    67   120    1
    91    67    66   ar
    92    33    30    1
    93    33    34    1
    94    30    29   ar
    95     6     5   ar
    96     6    79    1
    97    34    39   ar
    98     5    78    1
    99    13    12   ar
   100    13    83    1
   101    37    40    1
   102    37    38   ar
   103   104    45    1
   104    63    62   ar
   105    63   117    1
   106    12    82    1
   107    62   116    1
   108    40    45   ar
   109    40    41   ar
   110    45    44   ar
   111    20    15   ar
   112    20    19   ar
   113    41   100    1
   114    41    42   ar
   115   103    44    1
   116    44    43   ar
   117    42    43   ar
   118    42   101    1
   119    43   102    1
   120    50    51   ar
   121    50   107    1
   122    51   108    1
   123    28    29   ar
   124    28    92    1
   125    39    38   ar
   126    39    99    1
   127    29    93    1
   128    15    16   ar
   129    38    98    1
   130    87    19    1
   131    65    66   ar
   132    65   118    1
   133    66   119    1
   134    19    18   ar
   135    16    84    1
   136    16    17   ar
   137    18    17   ar
   138    18    86    1
   139    17    85    1
