@<TRIPOS>MOLECULE
11248716
 62 69 0 0 0
SMALL
GASTEIGER

@<TRIPOS>ATOM
      1 N          -4.8899   -0.0006    0.0007 N.ar    1  UNL1       -0.3087
      2 N           4.9022    0.0007    0.0007 N.ar    1  UNL1       -0.3087
      3 C          -5.6878    1.0931    0.2937 C.ar    1  UNL1        0.0549
      4 C          -5.6888   -1.0933   -0.2936 C.ar    1  UNL1        0.0549
      5 C           5.6821   -1.0931    0.2938 C.ar    1  UNL1        0.0549
      6 C           5.6831    1.0933   -0.2935 C.ar    1  UNL1        0.0549
      7 C          -7.0195    0.6917    0.1852 C.ar    1  UNL1        0.0079
      8 C          -7.0202   -0.6905   -0.1861 C.ar    1  UNL1        0.0079
      9 C           7.0138   -0.6917    0.1852 C.ar    1  UNL1        0.0079
     10 C           7.0145    0.6905   -0.1861 C.ar    1  UNL1        0.0079
     11 C          -3.5069   -0.0017    0.0010 C.ar    1  UNL1        0.0472
     12 C           3.5013    0.0017    0.0010 C.ar    1  UNL1        0.0472
     13 C          -5.3161    2.3962    0.6437 C.ar    1  UNL1       -0.0372
     14 C          -5.3182   -2.3968   -0.6437 C.ar    1  UNL1       -0.0372
     15 C           5.3104   -2.3962    0.6437 C.ar    1  UNL1       -0.0372
     16 C           5.3125    2.3967   -0.6438 C.ar    1  UNL1       -0.0372
     17 C          -0.7171   -0.0011    0.0013 C.ar    1  UNL1       -0.0178
     18 C           0.7294    0.0011    0.0013 C.ar    1  UNL1       -0.0178
     19 C          -8.0326    1.6400    0.4391 C.ar    1  UNL1       -0.0520
     20 C          -8.0341   -1.6375   -0.4412 C.ar    1  UNL1       -0.0520
     21 C           8.0269   -1.6400    0.4391 C.ar    1  UNL1       -0.0520
     22 C           8.0284    1.6375   -0.4412 C.ar    1  UNL1       -0.0520
     23 C          -2.8096   -0.3150    1.1676 C.ar    1  UNL1       -0.0373
     24 C           2.8218    0.3150    1.1676 C.ar    1  UNL1       -0.0373
     25 C          -2.8094    0.3120   -1.1655 C.ar    1  UNL1       -0.0373
     26 C           2.8216   -0.3121   -1.1655 C.ar    1  UNL1       -0.0373
     27 C          -1.4147   -0.3147    1.1679 C.ar    1  UNL1       -0.0521
     28 C           1.4269    0.3146    1.1678 C.ar    1  UNL1       -0.0521
     29 C          -1.4145    0.3124   -1.1652 C.ar    1  UNL1       -0.0521
     30 C           1.4268   -0.3124   -1.1653 C.ar    1  UNL1       -0.0521
     31 C          -6.3376    3.3175    0.8902 C.ar    1  UNL1       -0.0598
     32 C          -6.3406   -3.3166   -0.8922 C.ar    1  UNL1       -0.0598
     33 C           6.3320   -3.3175    0.8902 C.ar    1  UNL1       -0.0598
     34 C           6.3349    3.3166   -0.8922 C.ar    1  UNL1       -0.0598
     35 C          -7.6764    2.9471    0.7901 C.ar    1  UNL1       -0.0611
     36 C          -7.6791   -2.9448   -0.7928 C.ar    1  UNL1       -0.0611
     37 C           7.6707   -2.9471    0.7900 C.ar    1  UNL1       -0.0611
     38 C           7.6734    2.9448   -0.7929 C.ar    1  UNL1       -0.0611
     39 H          -4.2762    2.6953    0.7246 H       1  UNL1        0.0638
     40 H          -4.2786   -2.6969   -0.7237 H       1  UNL1        0.0638
     41 H           4.2705   -2.6952    0.7246 H       1  UNL1        0.0638
     42 H           4.2729    2.6968   -0.7238 H       1  UNL1        0.0638
     43 H          -9.0814    1.3665    0.3649 H       1  UNL1        0.0624
     44 H          -9.0826   -1.3628   -0.3680 H       1  UNL1        0.0624
     45 H           9.0756   -1.3666    0.3649 H       1  UNL1        0.0624
     46 H           9.0770    1.3629   -0.3680 H       1  UNL1        0.0624
     47 H          -3.3401   -0.5676    2.0827 H       1  UNL1        0.0638
     48 H           3.3549    0.5671    2.0806 H       1  UNL1        0.0638
     49 H          -3.3397    0.5651   -2.0805 H       1  UNL1        0.0638
     50 H           3.3546   -0.5645   -2.0784 H       1  UNL1        0.0638
     51 H          -0.9152   -0.5944    2.0913 H       1  UNL1        0.0624
     52 H           0.9274    0.5943    2.0913 H       1  UNL1        0.0624
     53 H          -0.9151    0.5932   -2.0884 H       1  UNL1        0.0624
     54 H           0.9274   -0.5932   -2.0884 H       1  UNL1        0.0624
     55 H          -6.0820    4.3378    1.1642 H       1  UNL1        0.0618
     56 H          -6.0859   -4.3370   -1.1666 H       1  UNL1        0.0618
     57 H           6.0764   -4.3379    1.1641 H       1  UNL1        0.0618
     58 H           6.0802    4.3370   -1.1666 H       1  UNL1        0.0618
     59 H          -8.4545    3.6800    0.9863 H       1  UNL1        0.0618
     60 H          -8.4578   -3.6767   -0.9903 H       1  UNL1        0.0618
     61 H           8.4488   -3.6800    0.9862 H       1  UNL1        0.0618
     62 H           8.4521    3.6767   -0.9904 H       1  UNL1        0.0618
@<TRIPOS>BOND
     1     1     3   ar
     2     1     4   ar
     3     1    11    1
     4     2     5   ar
     5     2     6   ar
     6     2    12    1
     7     3     7   ar
     8     3    13   ar
     9     4     8   ar
    10     4    14   ar
    11     5     9   ar
    12     5    15   ar
    13     6    10   ar
    14     6    16   ar
    15     7     8   ar
    16     7    19   ar
    17     8    20   ar
    18     9    10   ar
    19     9    21   ar
    20    10    22   ar
    21    11    23   ar
    22    11    25   ar
    23    12    24   ar
    24    12    26   ar
    25    13    31   ar
    26    13    39    1
    27    14    32   ar
    28    14    40    1
    29    15    33   ar
    30    15    41    1
    31    16    34   ar
    32    16    42    1
    33    17    18    1
    34    17    27   ar
    35    17    29   ar
    36    18    28   ar
    37    18    30   ar
    38    19    35   ar
    39    19    43    1
    40    20    36   ar
    41    20    44    1
    42    21    37   ar
    43    21    45    1
    44    22    38   ar
    45    22    46    1
    46    23    27   ar
    47    23    47    1
    48    24    28   ar
    49    24    48    1
    50    25    29   ar
    51    25    49    1
    52    26    30   ar
    53    26    50    1
    54    27    51    1
    55    28    52    1
    56    29    53    1
    57    30    54    1
    58    31    35   ar
    59    31    55    1
    60    32    36   ar
    61    32    56    1
    62    33    37   ar
    63    33    57    1
    64    34    38   ar
    65    34    58    1
    66    35    59    1
    67    36    60    1
    68    37    61    1
    69    38    62    1
