@<TRIPOS>MOLECULE
mtdata_marvin.xyz
 109 117 0 0 0
SMALL
GASTEIGER

@<TRIPOS>ATOM
1  C  7.6985  -2.3887  -10.9223  C.ar  1  UNL1  -0.0371
2  C  8.3165  -2.3370  -12.1791  C.ar  1  UNL1  -0.0487
3  C  9.4247  -1.4907  -12.3496  C.ar  1  UNL1  -0.0587
4  C  9.8861  -0.7110  -11.2853  C.ar  1  UNL1  -0.0597
5  C  9.2538  -0.7527  -10.0422  C.ar  1  UNL1  -0.0400
6  C  8.1488  -1.6011  -9.8470  C.ar  1  UNL1  0.0390
7  C  7.8397  -0.9469  -6.2617  C.ar  1  UNL1  -0.0400
8  C  8.2548  -1.6820  -7.3888  C.ar  1  UNL1  0.0388
9  C  9.4379  -2.4409  -7.3009  C.ar  1  UNL1  -0.0400
10  C  10.1850  -2.4539  -6.1218  C.ar  1  UNL1  -0.0600
11  C  9.7636  -1.7280  -5.0025  C.ar  1  UNL1  -0.0616
12  C  8.5847  -0.9791  -5.0815  C.ar  1  UNL1  -0.0600
13  C  3.2360  -1.7644  -8.4139  C.ar  1  UNL1  0.0389
14  C  4.0158  -2.5880  -7.5801  C.ar  1  UNL1  -0.0382
15  C  5.4070  -2.5685  -7.6499  C.ar  1  UNL1  -0.0382
16  C  6.0762  -1.6967  -8.5287  C.ar  1  UNL1  0.0389
17  C  5.2973  -0.8600  -9.3492  C.ar  1  UNL1  -0.0382
18  C  3.9058  -0.9064  -9.3067  C.ar  1  UNL1  -0.0382
19  C  0.8969  -5.3892  -8.8232  C.ar  1  UNL1  -0.0382
20  C  -0.2160  -5.5227  -7.9721  C.ar  1  UNL1  0.0389
21  C  -0.6374  -4.3890  -7.2527  C.ar  1  UNL1  -0.0382
22  C  0.0386  -3.1762  -7.3646  C.ar  1  UNL1  -0.0382
23  C  1.1411  -3.0379  -8.2289  C.ar  1  UNL1  0.0389
24  C  1.5504  -4.1670  -8.9630  C.ar  1  UNL1  -0.0382
25  C  -0.8312  0.6784  -9.2591  C.ar  1  UNL1  -0.0382
26  C  -0.0946  -0.5026  -9.2026  C.ar  1  UNL1  -0.0382
27  C  1.0771  -0.5893  -8.4273  C.ar  1  UNL1  0.0389
28  C  1.4910  0.5583  -7.7248  C.ar  1  UNL1  -0.0382
29  C  0.7736  1.7493  -7.8105  C.ar  1  UNL1  -0.0382
30  C  -0.4068  1.8307  -8.5723  C.ar  1  UNL1  0.0389
31  C  -1.9268  3.9040  -5.1000  C.ar  1  UNL1  -0.0600
32  C  -1.8652  5.3012  -5.1303  C.ar  1  UNL1  -0.0616
33  C  -1.5645  5.9430  -6.3366  C.ar  1  UNL1  -0.0600
34  C  -1.3203  5.2034  -7.4949  C.ar  1  UNL1  -0.0400
35  C  -1.3901  3.7969  -7.4723  C.ar  1  UNL1  0.0388
36  C  -1.7003  3.1565  -6.2571  C.ar  1  UNL1  -0.0400
37  C  -2.9457  4.0158  -10.0094  C.ar  1  UNL1  -0.0400
38  C  -1.6491  3.4832  -9.9011  C.ar  1  UNL1  0.0390
39  C  -0.8529  3.3920  -11.0583  C.ar  1  UNL1  -0.0371
40  C  -1.3260  3.8092  -12.3088  C.ar  1  UNL1  -0.0487
41  C  -2.6212  4.3485  -12.3931  C.ar  1  UNL1  -0.0587
42  C  -3.4165  4.4512  -11.2493  C.ar  1  UNL1  -0.0597
43  C  -1.7107  -9.0868  -11.2863  C.ar  1  UNL1  -0.0587
44  C  -1.8795  -7.6999  -11.3161  C.ar  1  UNL1  -0.0597
45  C  -1.6231  -6.9242  -10.1847  C.ar  1  UNL1  -0.0400
46  C  -1.1735  -7.5385  -9.0022  C.ar  1  UNL1  0.0390
47  C  -0.9962  -8.9344  -8.9865  C.ar  1  UNL1  -0.0371
48  C  -1.2708  -9.7215  -10.1127  C.ar  1  UNL1  -0.0487
49  C  -2.5537  -7.8328  -6.3823  C.ar  1  UNL1  -0.0400
50  C  -2.9451  -8.2867  -5.1216  C.ar  1  UNL1  -0.0600
51  C  -2.1048  -8.1286  -4.0143  C.ar  1  UNL1  -0.0616
52  C  -0.8596  -7.5152  -4.1872  C.ar  1  UNL1  -0.0600
53  C  -0.4528  -7.0731  -5.4474  C.ar  1  UNL1  -0.0400
54  C  -1.2975  -7.2230  -6.5638  C.ar  1  UNL1  0.0388
55  N  -0.8936  -6.7643  -7.8445  N.pl3  1  UNL1  -0.2692
56  N  -1.1477  3.0406  -8.6478  N.pl3  1  UNL1  -0.2692
57  N  1.8187  -1.7974  -8.3562  N.pl3  1  UNL1  -0.2692
58  N  7.4950  -1.6622  -8.5870  N.pl3  1  UNL1  -0.2692
59  C  -0.4649  3.6767  -13.5431  C.3  1  UNL1  -0.0397
60  C  7.7912  -3.1673  -13.3267  C.3  1  UNL1  -0.0397
61  C  -1.1062  -11.2223  -10.0585  C.3  1  UNL1  -0.0397
62  H  6.8477  -3.0564  -10.7672  H  1  UNL1  0.0639
63  H  9.9279  -1.4441  -13.3195  H  1  UNL1  0.0620
64  H  10.7464  -0.0511  -11.4276  H  1  UNL1  0.0618
65  H  9.6125  -0.1329  -9.2183  H  1  UNL1  0.0636
66  H  6.9284  -0.3483  -6.3180  H  1  UNL1  0.0636
67  H  9.7680  -3.0213  -8.1647  H  1  UNL1  0.0636
68  H  11.1003  -3.0505  -6.0749  H  1  UNL1  0.0618
69  H  10.3472  -1.7460  -4.0787  H  1  UNL1  0.0618
70  H  8.2446  -0.4003  -4.2181  H  1  UNL1  0.0618
71  H  3.5218  -3.2632  -6.8784  H  1  UNL1  0.0637
72  H  5.9880  -3.2276  -7.0016  H  1  UNL1  0.0637
73  H  5.7927  -0.1752  -10.0407  H  1  UNL1  0.0637
74  H  3.3250  -0.2568  -9.9645  H  1  UNL1  0.0637
75  H  1.2426  -6.2535  -9.3942  H  1  UNL1  0.0637
76  H  -1.4977  -4.4663  -6.5845  H  1  UNL1  0.0637
77  H  -0.3005  -2.3153  -6.7848  H  1  UNL1  0.0637
78  H  2.4032  -4.0864  -9.6401  H  1  UNL1  0.0637
79  H  -1.7436  0.7167  -9.8582  H  1  UNL1  0.0637
80  H  -0.4385  -1.3791  -9.7556  H  1  UNL1  0.0637
81  H  2.3966  0.5174  -7.1161  H  1  UNL1  0.0637
82  H  1.1233  2.6292  -7.2663  H  1  UNL1  0.0637
83  H  -2.1671  3.3865  -4.1670  H  1  UNL1  0.0618
84  H  -2.0490  5.8835  -4.2240  H  1  UNL1  0.0618
85  H  -1.5050  7.0343  -6.3764  H  1  UNL1  0.0618
86  H  -1.0728  5.7131  -8.4281  H  1  UNL1  0.0636
87  H  -1.7640  2.0670  -6.2260  H  1  UNL1  0.0636
88  H  -3.5772  4.0880  -9.1220  H  1  UNL1  0.0636
89  H  0.1585  2.9879  -10.9728  H  1  UNL1  0.0639
90  H  -3.0060  4.6892  -13.3587  H  1  UNL1  0.0620
91  H  -4.4254  4.8668  -11.3237  H  1  UNL1  0.0618
92  H  -1.9190  -9.6818  -12.1801  H  1  UNL1  0.0620
93  H  -2.2263  -7.2141  -12.2326  H  1  UNL1  0.0618
94  H  -1.7676  -5.8425  -10.2116  H  1  UNL1  0.0636
95  H  -0.6333  -9.4104  -8.0723  H  1  UNL1  0.0639
96  H  -3.2222  -7.9481  -7.2378  H  1  UNL1  0.0636
97  H  -3.9253  -8.7570  -5.0029  H  1  UNL1  0.0618
98  H  -2.4171  -8.4791  -3.0275  H  1  UNL1  0.0618
99  H  -0.1876  -7.3898  -3.3336  H  1  UNL1  0.0618
100  H  0.5267  -6.6076  -5.5745  H  1  UNL1  0.0636
101  H  0.5950  3.5291  -13.2862  H  1  UNL1  0.0278
102  H  -0.5403  4.5694  -14.1845  H  1  UNL1  0.0278
103  H  -0.7793  2.8126  -14.1551  H  1  UNL1  0.0278
104  H  7.0488  -2.6014  -13.9174  H  1  UNL1  0.0278
105  H  8.5984  -3.4605  -14.0159  H  1  UNL1  0.0278
106  H  7.2942  -4.0831  -12.9712  H  1  UNL1  0.0278
107  H  -2.0585  -11.7154  -9.7934  H  1  UNL1  0.0278
108  H  -0.7903  -11.6295  -11.0318  H  1  UNL1  0.0278
109  H  -0.3632  -11.5225  -9.3038  H  1  UNL1  0.0278
@<TRIPOS>BOND
     1   105    60    1
     2    63     3    1
     3    90    41    1
     4   102    59    1
     5    91    42    1
     6    41    42   ar
     7    41    40   ar
     8    60   104    1
     9    60   106    1
    10    60     2    1
    11     3     4   ar
    12     3     2   ar
    13    64     4    1
    14    42    37   ar
    15    59   103    1
    16    59    40    1
    17    59   101    1
    18     4     5   ar
    19     2     1   ar
    20    92    43    1
    21    40    39   ar
    22   108    61    1
    23    93    44    1
    24    37    88    1
    25    37    38   ar
    26    43    44   ar
    27    43    48   ar
    28    44    45   ar
    29     5    65    1
    30     5     6   ar
    31     1    62    1
    32     1     6   ar
    33   109    61    1
    34    61    48    1
    35    61   107    1
    36    39    38   ar
    37    39    89    1
    38    48    47   ar
    39    38    56    1
    40    79    25    1
    41     6    58    1
    42    73    17    1
    43    45    94    1
    44    45    46   ar
    45    80    26    1
    46    74    18    1
    47    75    19    1
    48    25    26   ar
    49    25    30   ar
    50    47    46   ar
    51    47    95    1
    52    78    24    1
    53    17    18   ar
    54    17    16   ar
    55    56    30    1
    56    56    35    1
    57    26    27   ar
    58    46    55    1
    59    18    13   ar
    60    58    16    1
    61    58     8    1
    62    19    24   ar
    63    19    20   ar
    64    86    34    1
    65    30    29   ar
    66    24    23   ar
    67    67     9    1
    68    16    15   ar
    69    35    34   ar
    70    35    36   ar
    71    34    33   ar
    72    27    57    1
    73    27    28   ar
    74    55    20    1
    75    55    54    1
    76     8     9   ar
    77     8     7   ar
    78     9    10   ar
    79    13    57    1
    80    13    14   ar
    81    20    21   ar
    82    87    36    1
    83    57    23    1
    84    36    31   ar
    85    23    22   ar
    86    33    85    1
    87    33    32   ar
    88    29    28   ar
    89    29    82    1
    90   100    53    1
    91    15    14   ar
    92    15    72    1
    93    28    81    1
    94    14    71    1
    95    31    32   ar
    96    31    83    1
    97    68    10    1
    98    10    11   ar
    99     7    66    1
   100     7    12   ar
   101    32    84    1
   102    54    53   ar
   103    54    49   ar
   104    53    52   ar
   105    21    22   ar
   106    21    76    1
   107    22    77    1
   108    11    12   ar
   109    11    69    1
   110    12    70    1
   111    96    49    1
   112    49    50   ar
   113    52    99    1
   114    52    51   ar
   115    50    51   ar
   116    50    97    1
   117    51    98    1