@<TRIPOS>MOLECULE
meotpd.xyz
 82 87 0 0 0
SMALL
GASTEIGER

@<TRIPOS>ATOM
      1 C          -0.6808   -0.1798   -2.4317 C.ar    1  LIG1        0.1202
      2 C          -1.1204    0.2821   -1.0986 C.ar    1  LIG1       -0.0182
      3 C          -0.1462    1.1927   -0.4466 C.ar    1  LIG1       -0.0366
      4 C           1.1117    1.6349   -1.0558 C.ar    1  LIG1        0.0390
      5 C           1.4430    1.0793   -2.3306 C.ar    1  LIG1       -0.0366
      6 C           0.6001    0.1815   -3.0278 C.ar    1  LIG1       -0.0182
      7 C           3.9993    1.3788    0.0578 C.ar    1  LIG1       -0.0394
      8 C           3.3034    2.4743   -0.5230 C.ar    1  LIG1        0.0388
      9 C           4.0391    3.4772   -1.2084 C.ar    1  LIG1       -0.0394
     10 C           5.4446    3.4168   -1.2725 C.ar    1  LIG1       -0.0523
     11 C           6.1382    2.3551   -0.6402 C.ar    1  LIG1       -0.0178
     12 C           5.4111    1.3203    0.0011 C.ar    1  LIG1       -0.0523
     13 C           1.8406    4.0922    1.4896 C.ar    1  LIG1       -0.0366
     14 C           1.3102    5.2398    2.1218 C.ar    1  LIG1       -0.0182
     15 C           0.3145    6.0111    1.4747 C.ar    1  LIG1        0.1202
     16 C          -0.1720    5.6048    0.2085 C.ar    1  LIG1       -0.0182
     17 C           0.3740    4.4696   -0.4297 C.ar    1  LIG1       -0.0366
     18 C           1.3889    3.6940    0.1990 C.ar    1  LIG1        0.0390
     19 C           8.2323    3.2378    0.2414 C.ar    1  LIG1       -0.0523
     20 C           7.5484    2.3714   -0.6474 C.ar    1  LIG1       -0.0178
     21 C           8.2843    1.5708   -1.5560 C.ar    1  LIG1       -0.0523
     22 C           9.6942    1.6670   -1.6018 C.ar    1  LIG1       -0.0394
     23 C          10.3810    2.5764   -0.7525 C.ar    1  LIG1        0.0388
     24 C           9.6372    3.3386    0.1877 C.ar    1  LIG1       -0.0394
     25 C          14.8055    0.5660   -0.6842 C.ar    1  LIG1       -0.0182
     26 C          13.8903    1.5599   -1.0997 C.ar    1  LIG1       -0.0366
     27 C          12.6253    1.7227   -0.4608 C.ar    1  LIG1        0.0390
     28 C          12.2979    0.8050    0.5837 C.ar    1  LIG1       -0.0366
     29 C          13.2057   -0.1991    0.9932 C.ar    1  LIG1       -0.0182
     30 C          14.4778   -0.3045    0.3818 C.ar    1  LIG1        0.1202
     31 C          12.2042    3.9830   -1.2998 C.ar    1  LIG1        0.0390
     32 C          11.7028    4.5555   -2.5042 C.ar    1  LIG1       -0.0366
     33 C          12.1134    5.8419   -2.9232 C.ar    1  LIG1       -0.0182
     34 C          13.0581    6.5777   -2.1631 C.ar    1  LIG1        0.1202
     35 C          13.5871    6.0048   -0.9806 C.ar    1  LIG1       -0.0182
     36 C          13.1623    4.7246   -0.5535 C.ar    1  LIG1       -0.0366
     37 O          15.3680   -1.2763    0.7804 O.3     1  LIG1       -0.4951
     38 O          13.4302    7.8600   -2.5065 O.3     1  LIG1       -0.4951
     39 O          -0.1850    7.1344    2.0884 O.3     1  LIG1       -0.4951
     40 O          -1.4457   -1.0351   -3.2580 O.3     1  LIG1       -0.4951
     41 C          16.0968   -0.9409    1.9850 C.3     1  LIG1        0.0788
     42 C          14.2425    7.9713   -3.6969 C.3     1  LIG1        0.0788
     43 C           0.3848    8.3574    1.5645 C.3     1  LIG1        0.0788
     44 C          -2.3514   -0.3043   -4.1173 C.3     1  LIG1        0.0788
     45 N          11.7509    2.7455   -0.8459 N.pl3   1  LIG1       -0.2692
     46 N           1.9286    2.5823   -0.4414 N.pl3   1  LIG1       -0.2692
     47 H          -2.0056    0.0023   -0.6629 H       1  LIG1        0.0655
     48 H          -0.2888    1.6037    0.5412 H       1  LIG1        0.0637
     49 H           2.3257    1.3444   -2.7873 H       1  LIG1        0.0637
     50 H           0.8876   -0.1980   -3.9375 H       1  LIG1        0.0655
     51 H           3.4834    0.6279    0.5346 H       1  LIG1        0.0636
     52 H           3.5529    4.2574   -1.6691 H       1  LIG1        0.0636
     53 H           5.9526    4.1528   -1.7822 H       1  LIG1        0.0624
     54 H           5.9043    0.5311    0.4373 H       1  LIG1        0.0624
     55 H           2.5609    3.5448    1.9803 H       1  LIG1        0.0637
     56 H           1.6564    5.5107    3.0523 H       1  LIG1        0.0655
     57 H          -0.9173    6.1422   -0.2506 H       1  LIG1        0.0655
     58 H           0.0279    4.2140   -1.3626 H       1  LIG1        0.0637
     59 H           7.7147    3.8058    0.9262 H       1  LIG1        0.0624
     60 H           7.7985    0.9320   -2.1987 H       1  LIG1        0.0624
     61 H          10.2158    1.0872   -2.2712 H       1  LIG1        0.0636
     62 H          10.1148    3.9759    0.8374 H       1  LIG1        0.0636
     63 H          15.7091    0.4759   -1.1633 H       1  LIG1        0.0655
     64 H          14.1600    2.1675   -1.8829 H       1  LIG1        0.0637
     65 H          11.3913    0.8615    1.0653 H       1  LIG1        0.0637
     66 H          12.9410   -0.8547    1.7395 H       1  LIG1        0.0655
     67 H          11.0259    4.0418   -3.0860 H       1  LIG1        0.0637
     68 H          11.7124    6.2425   -3.7812 H       1  LIG1        0.0655
     69 H          14.2753    6.5252   -0.4217 H       1  LIG1        0.0655
     70 H          13.5475    4.3380    0.3164 H       1  LIG1        0.0637
     71 H          16.7743   -1.7718    2.2058 H       1  LIG1        0.0660
     72 H          16.7006   -0.0341    1.8509 H       1  LIG1        0.0660
     73 H          15.4268   -0.8104    2.8459 H       1  LIG1        0.0660
     74 H          14.5935    9.0075   -3.7680 H       1  LIG1        0.0660
     75 H          15.1218    7.3145   -3.6584 H       1  LIG1        0.0660
     76 H          13.6566    7.7497   -4.5985 H       1  LIG1        0.0660
     77 H          -0.0411    9.1969    2.1235 H       1  LIG1        0.0660
     78 H           1.4755    8.3822    1.6934 H       1  LIG1        0.0660
     79 H           0.1400    8.4972    0.5020 H       1  LIG1        0.0660
     80 H          -2.9337   -1.0344   -4.6904 H       1  LIG1        0.0660
     81 H          -3.0513    0.3121   -3.5354 H       1  LIG1        0.0660
     82 H          -1.8075    0.3330   -4.8295 H       1  LIG1        0.0660
@<TRIPOS>BOND
     1    82    44    1
     2    80    44    1
     3    76    42    1
     4    44    81    1
     5    44    40    1
     6    50     6    1
     7    68    33    1
     8    74    42    1
     9    42    75    1
    10    42    38    1
    11    40     1    1
    12    67    32    1
    13     6     1   ar
    14     6     5   ar
    15    33    32   ar
    16    33    34   ar
    17    49     5    1
    18    38    34    1
    19    32    31   ar
    20     1     2   ar
    21     5     4   ar
    22    61    22    1
    23    60    21    1
    24    34    35   ar
    25    64    26    1
    26    53    10    1
    27    52     9    1
    28    22    21   ar
    29    22    23   ar
    30    21    20   ar
    31    58    17    1
    32    31    45    1
    33    31    36   ar
    34    10     9   ar
    35    10    11   ar
    36     9     8   ar
    37    63    25    1
    38    26    25   ar
    39    26    27   ar
    40     2    47    1
    41     2     3   ar
    42     4     3   ar
    43     4    46    1
    44    35    36   ar
    45    35    69    1
    46    45    23    1
    47    45    27    1
    48    23    24   ar
    49    25    30   ar
    50    20    11    1
    51    20    19   ar
    52    11    12   ar
    53    36    70    1
    54     8    46    1
    55     8     7   ar
    56    27    28   ar
    57     3    48    1
    58    46    18    1
    59    17    18   ar
    60    17    16   ar
    61    57    16    1
    62    12     7   ar
    63    12    54    1
    64     7    51    1
    65    24    19   ar
    66    24    62    1
    67    18    13   ar
    68    16    15   ar
    69    19    59    1
    70    30    37    1
    71    30    29   ar
    72    79    43    1
    73    28    29   ar
    74    28    65    1
    75    37    41    1
    76    29    66    1
    77    15    39    1
    78    15    14   ar
    79    13    55    1
    80    13    14   ar
    81    43    78    1
    82    43    39    1
    83    43    77    1
    84    72    41    1
    85    41    71    1
    86    41    73    1
    87    14    56    1
