@<TRIPOS>MOLECULE
molecule.pdb
 78 85 0 0 0
SMALL
GASTEIGER

@<TRIPOS>ATOM
1  N  5.1857  -0.7016  -0.5427  N.pl3  0  PFF0  -0.2686
2  N1  -4.7873  -0.1722  0.2844  N.pl3  0  PFF0  -0.2686
3  C  5.9941  -0.5016  0.6235  C.ar  0  PFF0  0.0464
4  C1  -5.5397  0.0443  -0.9157  C.ar  0  PFF0  0.0464
5  C2  3.7721  -0.6527  -0.4295  C.ar  0  PFF0  0.0388
6  C3  -3.3717  -0.2618  0.1842  C.ar  0  PFF0  0.0388
7  C4  5.9933  0.7653  1.2987  C.ar  0  PFF0  0.0038
8  C5  -6.4769  1.1287  -0.9992  C.ar  0  PFF0  0.0038
9  C6  0.9350  -0.4957  -0.1869  C.ar  0  PFF0  -0.0178
10  C7  -0.5372  -0.4168  -0.0624  C.ar  0  PFF0  -0.0178
11  C8  5.8159  -1.1850  -1.7242  C.ar  0  PFF0  0.0388
12  C9  -5.4650  -0.5333  1.4794  C.ar  0  PFF0  0.0388
13  C10  6.8080  0.9133  2.4779  C.ar  0  PFF0  -0.0161
14  C11  -7.2254  1.2949  -2.2193  C.ar  0  PFF0  -0.0161
15  C12  2.9719  -0.2692  -1.5242  C.ar  0  PFF0  -0.0394
16  C13  -2.6663  0.6456  -0.6281  C.ar  0  PFF0  -0.0394
17  C14  3.1333  -0.9482  0.7883  C.ar  0  PFF0  -0.0394
18  C15  -2.6417  -1.2522  0.8666  C.ar  0  PFF0  -0.0394
19  C16  1.5882  -0.2031  -1.4021  C.ar  0  PFF0  -0.0523
20  C17  -1.2833  0.5613  -0.7510  C.ar  0  PFF0  -0.0523
21  C18  1.7477  -0.8631  0.9024  C.ar  0  PFF0  -0.0523
22  C19  -1.2559  -1.3172  0.7490  C.ar  0  PFF0  -0.0523
23  C20  6.7979  -1.5336  1.0846  C.ar  0  PFF0  -0.0394
24  C21  -5.3406  -0.7866  -2.0084  C.ar  0  PFF0  -0.0394
25  C22  5.2483  1.8862  0.8419  C.ar  0  PFF0  -0.0522
26  C23  -6.6794  2.0605  0.0548  C.ar  0  PFF0  -0.0522
27  C24  7.6085  -0.1750  2.9190  C.ar  0  PFF0  -0.0539
28  C25  -6.9952  0.4126  -3.3095  C.ar  0  PFF0  -0.0539
29  C26  7.6113  -1.3684  2.2266  C.ar  0  PFF0  -0.0594
30  C27  -6.0612  -0.5977  -3.2076  C.ar  0  PFF0  -0.0594
31  C28  6.8105  2.1624  3.1583  C.ar  0  PFF0  -0.0540
32  C29  -8.1618  2.3618  -2.3105  C.ar  0  PFF0  -0.0540
33  C30  5.2382  -2.2082  -2.4985  C.ar  0  PFF0  -0.0400
34  C31  -4.9248  -0.2001  2.7380  C.ar  0  PFF0  -0.0400
35  C32  7.0527  -0.6452  -2.1249  C.ar  0  PFF0  -0.0400
36  C33  -6.7043  -1.1975  1.4292  C.ar  0  PFF0  -0.0400
37  C34  5.2828  3.0861  1.5238  C.ar  0  PFF0  -0.0611
38  C35  -7.5904  3.0899  -0.0740  C.ar  0  PFF0  -0.0611
39  C36  6.0626  3.2253  2.6970  C.ar  0  PFF0  -0.0612
40  C37  -8.3461  3.2382  -1.2618  C.ar  0  PFF0  -0.0612
41  C38  5.8786  -2.6645  -3.6516  C.ar  0  PFF0  -0.0600
42  C39  -5.6022  -0.5405  3.9077  C.ar  0  PFF0  -0.0600
43  C40  7.6917  -1.1201  -3.2697  C.ar  0  PFF0  -0.0600
44  C41  -7.3814  -1.5177  2.6073  C.ar  0  PFF0  -0.0600
45  C42  7.1087  -2.1284  -4.0451  C.ar  0  PFF0  -0.0616
46  C43  -6.8362  -1.1992  3.8540  C.ar  0  PFF0  -0.0616
47  H  3.4437  -0.0297  -2.4796  H  0  PFF0  0.0636
48  H1  -3.2144  1.4284  -1.1573  H  0  PFF0  0.0636
49  H2  3.7323  -1.2353  1.6550  H  0  PFF0  0.0636
50  H3  -3.1687  -1.9839  1.4824  H  0  PFF0  0.0636
51  H4  0.9966  0.0698  -2.2800  H  0  PFF0  0.0624
52  H5  -0.7637  1.3042  -1.3620  H  0  PFF0  0.0624
53  H6  1.2879  -1.0702  1.8724  H  0  PFF0  0.0624
54  H7  -0.7227  -2.1212  1.2635  H  0  PFF0  0.0624
55  H8  6.7926  -2.4866  0.5505  H  0  PFF0  0.0636
56  H9  -4.6151  -1.5995  -1.9289  H  0  PFF0  0.0636
57  H10  4.6433  1.7893  -0.0608  H  0  PFF0  0.0624
58  H11  -6.1030  1.9545  0.9748  H  0  PFF0  0.0624
59  H12  8.2284  -0.0481  3.8112  H  0  PFF0  0.0624
60  H13  -7.5643  0.5530  -4.2329  H  0  PFF0  0.0624
61  H14  8.2299  -2.2023  2.5679  H  0  PFF0  0.0618
62  H15  -5.8852  -1.2726  -4.0491  H  0  PFF0  0.0618
63  H16  7.4247  2.2670  4.0576  H  0  PFF0  0.0624
64  H17  -8.7331  2.4786  -3.2363  H  0  PFF0  0.0624
65  H18  4.2868  -2.6465  -2.1904  H  0  PFF0  0.0636
66  H19  -3.9718  0.3305  2.7913  H  0  PFF0  0.0636
67  H20  7.5080  0.1492  -1.5294  H  0  PFF0  0.0636
68  H21  -7.1347  -1.4605  0.4609  H  0  PFF0  0.0636
69  H22  4.7045  3.9367  1.1542  H  0  PFF0  0.0618
70  H23  -7.7281  3.7979  0.7472  H  0  PFF0  0.0618
71  H24  6.0768  4.1795  3.2300  H  0  PFF0  0.0618
72  H25  -9.0684  4.0540  -1.3481  H  0  PFF0  0.0618
73  H26  5.4160  -3.4628  -4.2383  H  0  PFF0  0.0618
74  H27  -5.1664  -0.2715  4.8736  H  0  PFF0  0.0618
75  H28  8.6499  -0.6854  -3.5664  H  0  PFF0  0.0618
76  H29  -8.3429  -2.0343  2.5455  H  0  PFF0  0.0618
77  H30  7.6086  -2.4929  -4.9456  H  0  PFF0  0.0618
78  H31  -7.3666  -1.4573  4.7735  H  0  PFF0  0.0618
@<TRIPOS>BOND
     1    77    45    1
     2    73    41    1
     3    60    28    1
     4    45    41   ar
     5    45    43   ar
     6    62    30    1
     7    41    33   ar
     8    75    43    1
     9    64    32    1
    10    43    35   ar
    11    28    30   ar
    12    28    14   ar
    13    30    24   ar
    14    33    65    1
    15    33    11   ar
    16    32    14   ar
    17    32    40   ar
    18    47    15    1
    19    14     8   ar
    20    51    19    1
    21    35    11   ar
    22    35    67    1
    23    24    56    1
    24    24     4   ar
    25    11     1    1
    26    72    40    1
    27    15    19   ar
    28    15     5   ar
    29    40    38   ar
    30    19     9   ar
    31    52    20    1
    32    48    16    1
    33     8     4   ar
    34     8    26   ar
    35     4     2    1
    36    20    16   ar
    37    20    10   ar
    38    16     6   ar
    39     1     5    1
    40     1     3    1
    41     5    17   ar
    42    38    26   ar
    43    38    70    1
    44     9    10    1
    45     9    21   ar
    46    26    58    1
    47    10    22   ar
    48    57    25    1
    49     6     2    1
    50     6    18   ar
    51     2    12    1
    52    55    23    1
    53    68    36    1
    54     3    23   ar
    55     3     7   ar
    56    22    18   ar
    57    22    54    1
    58    17    21   ar
    59    17    49    1
    60    25     7   ar
    61    25    37   ar
    62    18    50    1
    63    21    53    1
    64    23    29   ar
    65    69    37    1
    66     7    13   ar
    67    36    12   ar
    68    36    44   ar
    69    12    34   ar
    70    37    39   ar
    71    29    61    1
    72    29    27   ar
    73    13    27   ar
    74    13    31   ar
    75    76    44    1
    76    44    46   ar
    77    34    66    1
    78    34    42   ar
    79    39    31   ar
    80    39    71    1
    81    27    59    1
    82    31    63    1
    83    46    42   ar
    84    46    78    1
    85    42    74    1
