@<TRIPOS>MOLECULE
POPy2.xyz
 63 71 0 0 0
SMALL
GASTEIGER

@<TRIPOS>ATOM
      1 P          -0.1342    1.4002   -1.1261 P.3     1  UNL1        0.1727
      2 O           0.0885    2.3288   -2.3128 O.2     1  UNL1       -0.3064
      3 C          -1.8265    0.7163   -1.1807 C.ar    1  UNL1        0.0277
      4 C          -2.5454    0.9771   -2.3633 C.ar    1  UNL1       -0.0496
      5 C          -3.8584    0.5489   -2.5237 C.ar    1  UNL1       -0.0533
      6 C          -4.4985   -0.1553   -1.5048 C.ar    1  UNL1       -0.0167
      7 C          -5.8239   -0.5788   -1.6653 C.ar    1  UNL1       -0.0534
      8 C          -6.4752   -1.2856   -0.6554 C.ar    1  UNL1       -0.0534
      9 C          -5.8145   -1.5889    0.5387 C.ar    1  UNL1       -0.0167
     10 C          -6.4611   -2.3020    1.5589 C.ar    1  UNL1       -0.0540
     11 C          -5.7961   -2.6036    2.7452 C.ar    1  UNL1       -0.0606
     12 C          -4.4761   -2.1967    2.9245 C.ar    1  UNL1       -0.0540
     13 C          -3.8065   -1.4819    1.9200 C.ar    1  UNL1       -0.0167
     14 C          -2.4831   -1.0752    2.0852 C.ar    1  UNL1       -0.0534
     15 C          -1.8245   -0.3624    1.0790 C.ar    1  UNL1       -0.0527
     16 C          -2.4554   -0.0139   -0.1325 C.ar    1  UNL1       -0.0057
     17 C          -3.8016   -0.4424   -0.3060 C.ar    1  UNL1       -0.0018
     18 C          -4.4733   -1.1694    0.7162 C.ar    1  UNL1       -0.0025
     19 C           1.0913    0.0610   -1.1484 C.ar    1  UNL1        0.0277
     20 C           0.6642   -1.2772   -1.1808 C.ar    1  UNL1       -0.0496
     21 C           1.5761   -2.3298   -1.1577 C.ar    1  UNL1       -0.0533
     22 C           2.9477   -2.0795   -1.1198 C.ar    1  UNL1       -0.0167
     23 C           3.8626   -3.1398   -1.0820 C.ar    1  UNL1       -0.0534
     24 C           5.2356   -2.8973   -1.0546 C.ar    1  UNL1       -0.0534
     25 C           5.7268   -1.5880   -1.0712 C.ar    1  UNL1       -0.0167
     26 C           7.1061   -1.3335   -1.0504 C.ar    1  UNL1       -0.0540
     27 C           7.5869   -0.0261   -1.0738 C.ar    1  UNL1       -0.0606
     28 C           6.6942    1.0424   -1.1198 C.ar    1  UNL1       -0.0540
     29 C           5.3098    0.8160   -1.1398 C.ar    1  UNL1       -0.0167
     30 C           4.4056    1.8770   -1.1936 C.ar    1  UNL1       -0.0534
     31 C           3.0280    1.6407   -1.2096 C.ar    1  UNL1       -0.0527
     32 C           2.4904    0.3373   -1.1634 C.ar    1  UNL1       -0.0057
     33 C           3.4127   -0.7441   -1.1310 C.ar    1  UNL1       -0.0018
     34 C           4.8146   -0.5056   -1.1129 C.ar    1  UNL1       -0.0025
     35 C          -0.0183    2.3543    0.4110 C.ar    1  UNL1        0.0200
     36 C           0.8424    2.0219    1.4676 C.ar    1  UNL1       -0.0507
     37 C           0.8823    2.8025    2.6251 C.ar    1  UNL1       -0.0611
     38 C           0.0666    3.9258    2.7403 C.ar    1  UNL1       -0.0617
     39 C          -0.7877    4.2741    1.6975 C.ar    1  UNL1       -0.0611
     40 C          -0.8273    3.4960    0.5403 C.ar    1  UNL1       -0.0507
     41 H          -2.0753    1.5346   -3.1736 H       1  UNL1        0.0625
     42 H          -4.3756    0.7785   -3.4530 H       1  UNL1        0.0624
     43 H          -6.3661   -0.3605   -2.5832 H       1  UNL1        0.0624
     44 H          -7.5051   -1.5981   -0.8127 H       1  UNL1        0.0624
     45 H          -7.4914   -2.6288    1.4360 H       1  UNL1        0.0624
     46 H          -6.3066   -3.1562    3.5296 H       1  UNL1        0.0618
     47 H          -3.9722   -2.4419    3.8569 H       1  UNL1        0.0624
     48 H          -1.9432   -1.3098    3.0003 H       1  UNL1        0.0624
     49 H          -0.7904   -0.1049    1.2737 H       1  UNL1        0.0624
     50 H          -0.3910   -1.5308   -1.2320 H       1  UNL1        0.0625
     51 H           1.1993   -3.3507   -1.1737 H       1  UNL1        0.0624
     52 H           3.5138   -4.1704   -1.0753 H       1  UNL1        0.0624
     53 H           5.9185   -3.7434   -1.0256 H       1  UNL1        0.0624
     54 H           7.8183   -2.1550   -1.0185 H       1  UNL1        0.0624
     55 H           8.6575    0.1603   -1.0597 H       1  UNL1        0.0618
     56 H           7.0871    2.0565   -1.1424 H       1  UNL1        0.0624
     57 H           4.7592    2.9054   -1.2306 H       1  UNL1        0.0624
     58 H           2.3847    2.5161   -1.2718 H       1  UNL1        0.0624
     59 H           1.4910    1.1518    1.4093 H       1  UNL1        0.0625
     60 H           1.5539    2.5346    3.4372 H       1  UNL1        0.0618
     61 H           0.1000    4.5328    3.6413 H       1  UNL1        0.0618
     62 H          -1.4207    5.1538    1.7820 H       1  UNL1        0.0618
     63 H          -1.4904    3.7826   -0.2747 H       1  UNL1        0.0625
@<TRIPOS>BOND
     1    42     5    1
     2    41     4    1
     3    43     7    1
     4     5     4   ar
     5     5     6   ar
     6     4     3   ar
     7     2     1    2
     8     7     6   ar
     9     7     8   ar
    10     6    17   ar
    11    58    31    1
    12    50    20    1
    13    57    30    1
    14    31    30   ar
    15    31    32   ar
    16    30    29   ar
    17    20    21   ar
    18    20    19   ar
    19     3     1    1
    20     3    16   ar
    21    51    21    1
    22    32    19   ar
    23    32    33   ar
    24    21    22   ar
    25    19     1    1
    26    56    28    1
    27    29    28   ar
    28    29    34   ar
    29    33    22   ar
    30    33    34   ar
    31     1    35    1
    32    22    23   ar
    33    28    27   ar
    34    34    25   ar
    35    23    52    1
    36    23    24   ar
    37    27    55    1
    38    27    26   ar
    39    25    24   ar
    40    25    26   ar
    41    24    53    1
    42    26    54    1
    43    44     8    1
    44     8     9   ar
    45    17    16   ar
    46    17    18   ar
    47    63    40    1
    48    16    15   ar
    49    35    40   ar
    50    35    36   ar
    51     9    18   ar
    52     9    10   ar
    53    40    39   ar
    54    18    13   ar
    55    15    49    1
    56    15    14   ar
    57    59    36    1
    58    45    10    1
    59    36    37   ar
    60    10    11   ar
    61    39    62    1
    62    39    38   ar
    63    13    14   ar
    64    13    12   ar
    65    14    48    1
    66    37    38   ar
    67    37    60    1
    68    38    61    1
    69    11    12   ar
    70    11    46    1
    71    12    47    1
