@<TRIPOS>MOLECULE
*****
 40 48 0 0 0
SMALL
GASTEIGER

@<TRIPOS>ATOM
      1 P           0.0000    0.0000    0.0000 P.3     1  UNL1        0.1751
      2 O           0.0000    0.0000    0.0000 O.2     1  UNL1       -0.3064
      3 C           0.0000    0.0000    0.0000 C.ar    1  UNL1        0.0367
      4 C           0.0000    0.0000    0.0000 C.ar    1  UNL1        0.0034
      5 C           0.0000    0.0000    0.0000 C.ar    1  UNL1        0.0001
      6 C           0.0000    0.0000    0.0000 C.ar    1  UNL1        0.0000
      7 C           0.0000    0.0000    0.0000 C.ar    1  UNL1        0.0000
      8 C           0.0000    0.0000    0.0000 C.ar    1  UNL1        0.0000
      9 C           0.0000    0.0000    0.0000 C.ar    1  UNL1        0.0000
     10 C           0.0000    0.0000    0.0000 C.ar    1  UNL1        0.0000
     11 C           0.0000    0.0000    0.0000 C.ar    1  UNL1        0.0000
     12 C           0.0000    0.0000    0.0000 C.ar    1  UNL1        0.0000
     13 C           0.0000    0.0000    0.0000 C.ar    1  UNL1        0.0000
     14 C           0.0000    0.0000    0.0000 C.ar    1  UNL1        0.0000
     15 C           0.0000    0.0000    0.0000 C.ar    1  UNL1        0.0001
     16 C           0.0000    0.0000    0.0000 C.ar    1  UNL1        0.0033
     17 C           0.0000    0.0000    0.0000 C.ar    1  UNL1        0.0001
     18 C           0.0000    0.0000    0.0000 C.ar    1  UNL1        0.0000
     19 C           0.0000    0.0000    0.0000 C.ar    1  UNL1        0.0367
     20 C           0.0000    0.0000    0.0000 C.ar    1  UNL1        0.0034
     21 C           0.0000    0.0000    0.0000 C.ar    1  UNL1        0.0001
     22 C           0.0000    0.0000    0.0000 C.ar    1  UNL1        0.0000
     23 C           0.0000    0.0000    0.0000 C.ar    1  UNL1        0.0000
     24 C           0.0000    0.0000    0.0000 C.ar    1  UNL1        0.0000
     25 C           0.0000    0.0000    0.0000 C.ar    1  UNL1        0.0000
     26 C           0.0000    0.0000    0.0000 C.ar    1  UNL1        0.0000
     27 C           0.0000    0.0000    0.0000 C.ar    1  UNL1        0.0000
     28 C           0.0000    0.0000    0.0000 C.ar    1  UNL1        0.0000
     29 C           0.0000    0.0000    0.0000 C.ar    1  UNL1        0.0000
     30 C           0.0000    0.0000    0.0000 C.ar    1  UNL1        0.0000
     31 C           0.0000    0.0000    0.0000 C.ar    1  UNL1        0.0001
     32 C           0.0000    0.0000    0.0000 C.ar    1  UNL1        0.0033
     33 C           0.0000    0.0000    0.0000 C.ar    1  UNL1        0.0001
     34 C           0.0000    0.0000    0.0000 C.ar    1  UNL1        0.0000
     35 C           0.0000    0.0000    0.0000 C.ar    1  UNL1        0.0367
     36 C           0.0000    0.0000    0.0000 C.ar    1  UNL1        0.0034
     37 C           0.0000    0.0000    0.0000 C.ar    1  UNL1        0.0001
     38 C           0.0000    0.0000    0.0000 C.ar    1  UNL1        0.0000
     39 C           0.0000    0.0000    0.0000 C.ar    1  UNL1        0.0001
     40 C           0.0000    0.0000    0.0000 C.ar    1  UNL1        0.0034
@<TRIPOS>BOND
     1     1     2    2
     2     1     3    1
     3     3     4   ar
     4     4     5   ar
     5     5     6   ar
     6     6     7   ar
     7     7     8   ar
     8     8     9   ar
     9     9    10   ar
    10    10    11   ar
    11    11    12   ar
    12    12    13   ar
    13    13    14   ar
    14    14    15   ar
    15    15    16   ar
    16     3    16   ar
    17    16    17   ar
    18     6    17   ar
    19    17    18   ar
    20     9    18   ar
    21    13    18   ar
    22     1    19    1
    23    19    20   ar
    24    20    21   ar
    25    21    22   ar
    26    22    23   ar
    27    23    24   ar
    28    24    25   ar
    29    25    26   ar
    30    26    27   ar
    31    27    28   ar
    32    28    29   ar
    33    29    30   ar
    34    30    31   ar
    35    31    32   ar
    36    19    32   ar
    37    32    33   ar
    38    22    33   ar
    39    33    34   ar
    40    25    34   ar
    41    29    34   ar
    42     1    35    1
    43    35    36   ar
    44    36    37   ar
    45    37    38   ar
    46    38    39   ar
    47    39    40   ar
    48    35    40   ar
