@<TRIPOS>MOLECULE
molecule.pdb
 161 174 0 0 0
SMALL
GASTEIGER

@<TRIPOS>ATOM
      1  C         -8.1340   -4.0240   -0.4620 C.3     0  TYU0        0.0788
      2  O         -7.0610   -4.4180   -1.2930 O.3     0  TYU0       -0.4951
      3  C1        -5.8020   -4.4280   -0.7790 C.ar    0  TYU0        0.1202
      4  C2        -5.4170   -3.7460    0.3850 C.ar    0  TYU0       -0.0182
      5  C3        -4.0930   -3.8190    0.8270 C.ar    0  TYU0       -0.0366
      6  C4        -3.1340   -4.5630    0.1280 C.ar    0  TYU0        0.0390
      7  N         -1.8020   -4.6680    0.6100 N.pl3   0  TYU0       -0.2692
      8  C5        -1.2330   -5.9340    0.8730 C.ar    0  TYU0        0.0390
      9  C6         0.1670   -6.1040    0.8360 C.ar    0  TYU0       -0.0366
     10  C7         0.7460   -7.3390    1.0980 C.ar    0  TYU0       -0.0182
     11  C8        -0.0560   -8.4560    1.3900 C.ar    0  TYU0        0.1202
     12  O1         0.6030   -9.6270    1.6240 O.3     0  TYU0       -0.4951
     13  C9        -0.1480  -10.7770    1.9150 C.3     0  TYU0        0.0788
     14 C10        -1.4480   -8.3040    1.4190 C.ar    0  TYU0       -0.0182
     15 C11        -2.0260   -7.0510    1.1730 C.ar    0  TYU0       -0.0366
     16 C12        -1.1370   -3.4930    1.0370 C.ar    0  TYU0        0.0391
     17 C13        -0.6410   -3.3940    2.3520 C.ar    0  TYU0       -0.0394
     18 C14         0.0090   -2.2390    2.7890 C.ar    0  TYU0       -0.0519
     19 C15         0.1690   -1.1690    1.9030 C.ar    0  TYU0       -0.0128
     20 C16        -0.3080   -1.2760    0.5750 C.ar    0  TYU0       -0.0187
     21 C17        -0.9630   -2.4190    0.1410 C.ar    0  TYU0       -0.0348
     22 C18         0.1170   -0.0510   -0.2310 C.3     0  TYU0        0.0729
     23 C19         0.6710    0.8620    0.8680 C.ar    0  TYU0       -0.0187
     24 C20         1.0720    2.1840    0.7630 C.ar    0  TYU0       -0.0348
     25 C21         1.5920    2.8320    1.9000 C.ar    0  TYU0        0.0391
     26  N1         1.9330    4.2040    1.8240 N.pl3   0  TYU0       -0.2692
     27 C22         3.1510    4.6610    2.3770 C.ar    0  TYU0        0.0390
     28 C23         3.2310    5.8680    3.0860 C.ar    0  TYU0       -0.0366
     29 C24         4.4450    6.3180    3.6170 C.ar    0  TYU0       -0.0182
     30 C25         5.6070    5.5480    3.4670 C.ar    0  TYU0        0.1202
     31  O2         6.8330    5.8920    3.9500 O.3     0  TYU0       -0.4951
     32 C26         6.9680    7.0980    4.6590 C.3     0  TYU0        0.0788
     33 C27         5.5310    4.3310    2.7690 C.ar    0  TYU0       -0.0182
     34 C28         4.3280    3.8990    2.2250 C.ar    0  TYU0       -0.0366
     35 C29         0.9470    5.1250    1.3860 C.ar    0  TYU0        0.0390
     36 C30         1.2880    6.2070    0.5530 C.ar    0  TYU0       -0.0366
     37 C31         0.3270    7.1330    0.1610 C.ar    0  TYU0       -0.0182
     38 C32        -1.0100    6.9970    0.5760 C.ar    0  TYU0        0.1202
     39  O3        -1.8770    7.9530    0.1460 O.3     0  TYU0       -0.4951
     40 C33        -3.1660    8.0120    0.7190 C.3     0  TYU0        0.0788
     41 C34        -1.3650    5.9040    1.3800 C.ar    0  TYU0       -0.0182
     42 C35        -0.3900    4.9860    1.7830 C.ar    0  TYU0       -0.0366
     43 C36         1.7330    2.1180    3.1070 C.ar    0  TYU0       -0.0394
     44 C37         1.3220    0.7870    3.2050 C.ar    0  TYU0       -0.0519
     45 C38         0.7630    0.1580    2.0870 C.ar    0  TYU0       -0.0128
     46 C39        -0.8940    0.6530   -1.1250 C.ar    0  TYU0       -0.0187
     47 C40        -2.1210    1.1920   -0.7730 C.ar    0  TYU0       -0.0348
     48 C41        -2.8460    1.9280   -1.7300 C.ar    0  TYU0        0.0391
     49  N2        -4.0950    2.4970   -1.3760 N.pl3   0  TYU0       -0.2692
     50 C42        -5.0450    1.6620   -0.7410 C.ar    0  TYU0        0.0390
     51 C43        -5.2850    0.3710   -1.2470 C.ar    0  TYU0       -0.0366
     52 C44        -6.1770   -0.4880   -0.6210 C.ar    0  TYU0       -0.0182
     53 C45        -6.8650   -0.0750    0.5320 C.ar    0  TYU0        0.1202
     54  O4        -7.7090   -0.9910    1.0920 O.3     0  TYU0       -0.4951
     55 C46        -8.4120   -0.6480    2.2630 C.3     0  TYU0        0.0788
     56 C47        -6.6520    1.2160    1.0350 C.ar    0  TYU0       -0.0182
     57 C48        -5.7410    2.0700    0.4030 C.ar    0  TYU0       -0.0366
     58 C49        -4.3560    3.8580   -1.6410 C.ar    0  TYU0        0.0390
     59 C50        -3.3040    4.7980   -1.6600 C.ar    0  TYU0       -0.0366
     60 C51        -3.5470    6.1350   -1.9450 C.ar    0  TYU0       -0.0182
     61 C52        -4.8550    6.5920   -2.1750 C.ar    0  TYU0        0.1202
     62  O5        -4.9960    7.9320   -2.3890 O.3     0  TYU0       -0.4951
     63 C53        -6.2770    8.4430   -2.6550 C.3     0  TYU0        0.0788
     64 C54        -5.9110    5.6720   -2.1480 C.ar    0  TYU0       -0.0182
     65 C55        -5.6560    4.3170   -1.8990 C.ar    0  TYU0       -0.0366
     66 C56        -2.3230    2.1010   -3.0250 C.ar    0  TYU0       -0.0394
     67 C57        -1.0850    1.5600   -3.3750 C.ar    0  TYU0       -0.0519
     68 C58        -0.3640    0.8310   -2.4230 C.ar    0  TYU0       -0.0128
     69 C59         0.9470    0.1800   -2.4910 C.ar    0  TYU0       -0.0128
     70 C60         1.8760    0.0500   -3.5300 C.ar    0  TYU0       -0.0519
     71 C61         3.0580   -0.6580   -3.3070 C.ar    0  TYU0       -0.0394
     72 C62         3.3310   -1.2390   -2.0510 C.ar    0  TYU0        0.0391
     73  N3         4.5120   -1.9830   -1.8390 N.pl3   0  TYU0       -0.2692
     74 C63         4.4330   -3.2140   -1.1390 C.ar    0  TYU0        0.0390
     75 C64         5.3500   -3.5350   -0.1310 C.ar    0  TYU0       -0.0366
     76 C65         5.2780   -4.7560    0.5490 C.ar    0  TYU0       -0.0182
     77 C66         4.2680   -5.6750    0.2320 C.ar    0  TYU0        0.1202
     78  O6         4.1060   -6.8840    0.8360 O.3     0  TYU0       -0.4951
     79 C67         4.9480   -7.2350    1.9080 C.3     0  TYU0        0.0788
     80 C68         3.3410   -5.3570   -0.7770 C.ar    0  TYU0       -0.0182
     81 C69         3.4270   -4.1460   -1.4540 C.ar    0  TYU0       -0.0366
     82 C70         5.7470   -1.5460   -2.3730 C.ar    0  TYU0        0.0390
     83 C71         6.0890   -0.1790   -2.3650 C.ar    0  TYU0       -0.0366
     84 C72         7.2980    0.2560   -2.8940 C.ar    0  TYU0       -0.0182
     85 C73         8.2190   -0.6630   -3.4280 C.ar    0  TYU0        0.1202
     86  O7         9.3790   -0.1430   -3.9120 O.3     0  TYU0       -0.4951
     87 C74        10.3340   -1.0130   -4.4670 C.3     0  TYU0        0.0788
     88 C75         7.8940   -2.0270   -3.4270 C.ar    0  TYU0       -0.0182
     89 C76         6.6660   -2.4560   -2.9140 C.ar    0  TYU0       -0.0366
     90 C77         2.4030   -1.0890   -1.0010 C.ar    0  TYU0       -0.0348
     91 C78         1.2340   -0.3850   -1.2320 C.ar    0  TYU0       -0.0187
     92 C79        -3.5250   -5.2290   -1.0480 C.ar    0  TYU0       -0.0366
     93 C80        -4.8410   -5.1670   -1.4920 C.ar    0  TYU0       -0.0182
     94  H         -8.0910   -2.9540   -0.1940 H       0  TYU0        0.0660
     95  H1        -8.1540   -4.6230    0.4700 H       0  TYU0        0.0660
     96  H2        -9.0540   -4.2180   -1.0370 H       0  TYU0        0.0660
     97  H3        -6.1370   -3.1470    0.9470 H       0  TYU0        0.0655
     98  H4        -3.7970   -3.2910    1.7380 H       0  TYU0        0.0637
     99  H5         0.8060   -5.2510    0.5980 H       0  TYU0        0.0637
    100  H6         1.8320   -7.4620    1.0650 H       0  TYU0        0.0655
    101  H7         0.5740  -11.5960    2.0610 H       0  TYU0        0.0660
    102  H8        -0.8320  -11.0440    1.0830 H       0  TYU0        0.0660
    103  H9        -0.7480  -10.6560    2.8400 H       0  TYU0        0.0660
    104 H10        -2.1040   -9.1470    1.6430 H       0  TYU0        0.0655
    105 H11        -3.1120   -6.9470    1.2140 H       0  TYU0        0.0637
    106 H12        -0.7770   -4.2410    3.0290 H       0  TYU0        0.0636
    107 H13         0.3770   -2.1730    3.8170 H       0  TYU0        0.0624
    108 H14        -1.3300   -2.5080   -0.8840 H       0  TYU0        0.0640
    109 H15         0.9790    2.7310   -0.1780 H       0  TYU0        0.0640
    110 H16         2.3310    6.4720    3.2220 H       0  TYU0        0.0637
    111 H17         4.4630    7.2660    4.1560 H       0  TYU0        0.0655
    112 H18         6.3420    7.1110    5.5740 H       0  TYU0        0.0660
    113 H19         8.0280    7.1750    4.9480 H       0  TYU0        0.0660
    114 H20         6.7010    7.9740    4.0340 H       0  TYU0        0.0660
    115 H21         6.4450    3.7420    2.6510 H       0  TYU0        0.0655
    116 H22         4.2870    2.9580    1.6710 H       0  TYU0        0.0637
    117 H23         2.3240    6.3230    0.2260 H       0  TYU0        0.0637
    118 H24         0.5880    7.9800   -0.4770 H       0  TYU0        0.0655
    119 H25        -3.6840    8.8470    0.2250 H       0  TYU0        0.0660
    120 H26        -3.7430    7.0880    0.5330 H       0  TYU0        0.0660
    121 H27        -3.1070    8.1950    1.8100 H       0  TYU0        0.0660
    122 H28        -2.3970    5.7610    1.7060 H       0  TYU0        0.0655
    123 H29        -0.6740    4.1470    2.4230 H       0  TYU0        0.0637
    124 H30         2.1480    2.6320    3.9780 H       0  TYU0        0.0636
    125 H31         1.4110    0.2570    4.1590 H       0  TYU0        0.0624
    126 H32        -2.5210    1.0740    0.2370 H       0  TYU0        0.0640
    127 H33        -4.7510    0.0410   -2.1410 H       0  TYU0        0.0637
    128 H34        -6.3540   -1.4880   -1.0200 H       0  TYU0        0.0655
    129 H35        -7.7230   -0.4090    3.0970 H       0  TYU0        0.0660
    130 H36        -9.0140   -1.5290    2.5350 H       0  TYU0        0.0660
    131 H37        -9.0870    0.2150    2.0960 H       0  TYU0        0.0660
    132 H38        -7.1720    1.5660    1.9280 H       0  TYU0        0.0655
    133 H39        -5.5660    3.0700    0.8100 H       0  TYU0        0.0637
    134 H40        -2.2830    4.4730   -1.4470 H       0  TYU0        0.0637
    135 H41        -2.7320    6.8610   -1.9480 H       0  TYU0        0.0655
    136 H42        -6.9730    8.2750   -1.8070 H       0  TYU0        0.0660
    137 H43        -6.1570    9.5270   -2.8090 H       0  TYU0        0.0660
    138 H44        -6.7170    7.9960   -3.5680 H       0  TYU0        0.0660
    139 H45        -6.9400    5.9870   -2.3310 H       0  TYU0        0.0655
    140 H46        -6.4880    3.6090   -1.9010 H       0  TYU0        0.0637
    141 H47        -2.9010    2.6740   -3.7540 H       0  TYU0        0.0636
    142 H48        -0.6900    1.7060   -4.3850 H       0  TYU0        0.0624
    143 H49         1.6780    0.4820   -4.5160 H       0  TYU0        0.0624
    144 H50         3.7840   -0.7820   -4.1150 H       0  TYU0        0.0636
    145 H51         6.1340   -2.8180    0.1250 H       0  TYU0        0.0637
    146 H52         6.0100   -4.9710    1.3290 H       0  TYU0        0.0655
    147 H53         4.8720   -6.5090    2.7420 H       0  TYU0        0.0660
    148 H54         6.0070   -7.3050    1.5890 H       0  TYU0        0.0660
    149 H55         4.6100   -8.2230    2.2570 H       0  TYU0        0.0660
    150 H56         2.5660   -6.0850   -1.0250 H       0  TYU0        0.0655
    151 H57         2.7060   -3.9090   -2.2400 H       0  TYU0        0.0637
    152 H58         5.3900    0.5460   -1.9400 H       0  TYU0        0.0637
    153 H59         7.5650    1.3160   -2.8910 H       0  TYU0        0.0655
    154 H60        11.1780   -0.3860   -4.7920 H       0  TYU0        0.0660
    155 H61        10.6980   -1.7520   -3.7240 H       0  TYU0        0.0660
    156 H62         9.9320   -1.5600   -5.3440 H       0  TYU0        0.0660
    157 H63         8.5820   -2.7700   -3.8360 H       0  TYU0        0.0655
    158 H64         6.4190   -3.5200   -2.9300 H       0  TYU0        0.0637
    159 H65         2.6140   -1.5230   -0.0210 H       0  TYU0        0.0640
    160 H66        -2.7840   -5.8100   -1.6030 H       0  TYU0        0.0637
    161 H67        -5.1570   -5.6860   -2.4010 H       0  TYU0        0.0655
@<TRIPOS>BOND
     1   156    87    1
     2   154    87    1
     3   143    70    1
     4    87    86    1
     5    87   155    1
     6   142    67    1
     7   144    71    1
     8    86    85    1
     9   157    88    1
    10   141    66    1
    11   138    63    1
    12    70    71   ar
    13    70    69   ar
    14    85    88   ar
    15    85    84   ar
    16    88    89   ar
    17    67    66   ar
    18    67    68   ar
    19    71    72   ar
    20    66    48   ar
    21   158    89    1
    22    89    82   ar
    23    84   153    1
    24    84    83   ar
    25   137    63    1
    26    63    62    1
    27    63   136    1
    28    69    68    1
    29    69    91   ar
    30    68    46   ar
    31   161    93    1
    32    62    61    1
    33    82    83   ar
    34    82    73    1
    35    83   152    1
    36   139    64    1
    37   151    81    1
    38    61    64   ar
    39    61    60   ar
    40    64    65   ar
    41   127    51    1
    42    72    73    1
    43    72    90   ar
    44   135    60    1
    45    60    59   ar
    46   140    65    1
    47    65    58   ar
    48    73    74    1
    49    48    49    1
    50    48    47   ar
    51    59    58   ar
    52    59   134    1
    53    58    49    1
    54   160    92    1
    55    93    92   ar
    56    93     3   ar
    57    81    74   ar
    58    81    80   ar
    59    49    50    1
    60     2     3    1
    61     2     1    1
    62    51    50   ar
    63    51    52   ar
    64    91    90   ar
    65    91    22    1
    66    74    75   ar
    67    46    47   ar
    68    46    22    1
    69    92     6   ar
    70    96     1    1
    71   150    80    1
    72   128    52    1
    73    90   159    1
    74   108    21    1
    75     3     4   ar
    76    80    77   ar
    77    47   126    1
    78    50    57   ar
    79    52    53   ar
    80   118    37    1
    81     1    94    1
    82     1    95    1
    83    22    20    1
    84    22    23    1
    85   109    24    1
    86    75   145    1
    87    75    76   ar
    88     6     7    1
    89     6     5   ar
    90    21    20   ar
    91    21    16   ar
    92    39    38    1
    93    39    40    1
    94    37    36   ar
    95    37    38   ar
    96   119    40    1
    97   117    36    1
    98    77    76   ar
    99    77    78    1
   100     4     5   ar
   101     4    97    1
   102    57   133    1
   103    57    56   ar
   104    53    56   ar
   105    53    54    1
   106   120    40    1
   107    76   146    1
   108    36    35   ar
   109    20    19   ar
   110    38    41   ar
   111    99     9    1
   112     7     8    1
   113     7    16    1
   114    40   121    1
   115    24    23   ar
   116    24    25   ar
   117     5    98    1
   118     9     8   ar
   119     9    10   ar
   120    78    79    1
   121    23    45   ar
   122     8    15   ar
   123    56   132    1
   124    16    17   ar
   125   100    10    1
   126   102    13    1
   127    54    55    1
   128    10    11   ar
   129    15   105    1
   130    15    14   ar
   131    41   122    1
   132    41    42   ar
   133    35    42   ar
   134    35    26    1
   135    11    14   ar
   136    11    12    1
   137    14   104    1
   138   148    79    1
   139    12    13    1
   140   116    34    1
   141    42   123    1
   142    26    25    1
   143    26    27    1
   144    25    43   ar
   145    19    45    1
   146    19    18   ar
   147    79   149    1
   148    79   147    1
   149    13   101    1
   150    13   103    1
   151    45    44   ar
   152   131    55    1
   153    34    27   ar
   154    34    33   ar
   155    55   130    1
   156    55   129    1
   157    17    18   ar
   158    17   106    1
   159    27    28   ar
   160   115    33    1
   161    33    30   ar
   162    18   107    1
   163    28   110    1
   164    28    29   ar
   165    43    44   ar
   166    43   124    1
   167    44   125    1
   168    30    29   ar
   169    30    31    1
   170    29   111    1
   171    31    32    1
   172   114    32    1
   173    32   113    1
   174    32   112    1
