@<TRIPOS>MOLECULE
spiro_marvin.xyz
 129 142 0 0 0
SMALL
GASTEIGER

@<TRIPOS>ATOM
1  C  0.2393  -0.6204  0.5190  C.ar  1  UNL1  0.0388
2  C  -0.9319  0.0461  0.9281  C.ar  1  UNL1  -0.0400
3  C  -1.4874  -0.2073  2.1837  C.ar  1  UNL1  -0.0600
4  C  -0.9017  -1.1366  3.0499  C.ar  1  UNL1  -0.0616
5  C  0.2579  -1.8057  2.6454  C.ar  1  UNL1  -0.0600
6  C  0.8303  -1.5476  1.3987  C.ar  1  UNL1  -0.0400
7  C  0.6672  -2.6584  -1.6272  C.ar  1  UNL1  -0.0400
8  C  1.2097  -3.7096  -2.3686  C.ar  1  UNL1  -0.0600
9  C  2.4362  -3.5590  -3.0247  C.ar  1  UNL1  -0.0616
10  C  3.1199  -2.3427  -2.9232  C.ar  1  UNL1  -0.0600
11  C  2.5924  -1.2918  -2.1704  C.ar  1  UNL1  -0.0400
12  C  1.3557  -1.4361  -1.5144  C.ar  1  UNL1  0.0388
13  C  1.2350  3.3240  -0.9769  C.ar  1  UNL1  -0.0187
14  C  1.1975  2.0426  -0.4425  C.ar  1  UNL1  -0.0348
15  C  0.8510  0.9560  -1.2728  C.ar  1  UNL1  0.0391
16  C  0.5514  1.1943  -2.6306  C.ar  1  UNL1  -0.0394
17  C  0.6078  2.4814  -3.1663  C.ar  1  UNL1  -0.0519
18  C  0.9498  3.5578  -2.3393  C.ar  1  UNL1  -0.0128
19  C  1.4675  5.6450  -1.4183  C.ar  1  UNL1  -0.0187
20  C  1.0876  4.9924  -2.6105  C.ar  1  UNL1  -0.0128
21  C  0.9063  5.7420  -3.7788  C.ar  1  UNL1  -0.0519
22  C  1.1044  7.1230  -3.7465  C.ar  1  UNL1  -0.0394
23  C  1.4655  7.7803  -2.5515  C.ar  1  UNL1  0.0391
24  C  1.6482  7.0215  -1.3761  C.ar  1  UNL1  -0.0348
25  C  0.2421  11.9153  -4.6765  C.ar  1  UNL1  -0.0600
26  C  1.1550  11.1035  -4.0009  C.ar  1  UNL1  -0.0400
27  C  0.7060  10.0168  -3.2275  C.ar  1  UNL1  0.0388
28  C  -0.6762  9.7612  -3.1562  C.ar  1  UNL1  -0.0400
29  C  -1.5809  10.5684  -3.8482  C.ar  1  UNL1  -0.0600
30  C  -1.1303  11.6520  -4.6095  C.ar  1  UNL1  -0.0616
31  C  2.7038  9.7783  -1.8138  C.ar  1  UNL1  0.0388
32  C  2.5083  10.9596  -1.0727  C.ar  1  UNL1  -0.0400
33  C  3.5687  11.5433  -0.3773  C.ar  1  UNL1  -0.0600
34  C  4.8383  10.9566  -0.3896  C.ar  1  UNL1  -0.0616
35  C  5.0356  9.7772  -1.1161  C.ar  1  UNL1  -0.0600
36  C  3.9852  9.1947  -1.8281  C.ar  1  UNL1  -0.0400
37  C  5.2850  4.6484  1.9479  C.ar  1  UNL1  -0.0394
38  C  5.3822  4.3602  0.5702  C.ar  1  UNL1  0.0391
39  C  4.2098  4.3442  -0.2144  C.ar  1  UNL1  -0.0348
40  C  2.9854  4.6130  0.3833  C.ar  1  UNL1  -0.0187
41  C  2.8886  4.8839  1.7648  C.ar  1  UNL1  -0.0128
42  C  4.0497  4.8996  2.5468  C.ar  1  UNL1  -0.0519
43  C  -0.5367  5.5790  3.3466  C.ar  1  UNL1  -0.0394
44  C  0.8487  5.4142  3.3153  C.ar  1  UNL1  -0.0519
45  C  1.4790  5.1048  2.1041  C.ar  1  UNL1  -0.0128
46  C  0.7030  4.9634  0.9338  C.ar  1  UNL1  -0.0187
47  C  -0.6739  5.1441  0.9556  C.ar  1  UNL1  -0.0348
48  C  -1.3124  5.4572  2.1743  C.ar  1  UNL1  0.0391
49  C  -4.3235  8.8363  4.5256  C.ar  1  UNL1  -0.0616
50  C  -3.1802  9.0358  3.7443  C.ar  1  UNL1  -0.0600
51  C  -2.6526  7.9948  2.9780  C.ar  1  UNL1  -0.0400
52  C  -3.2545  6.7226  2.9935  C.ar  1  UNL1  0.0388
53  C  -4.3994  6.5245  3.7884  C.ar  1  UNL1  -0.0400
54  C  -4.9299  7.5756  4.5386  C.ar  1  UNL1  -0.0600
55  C  -5.5467  4.5153  0.0702  C.ar  1  UNL1  -0.0600
56  C  -4.6875  5.3492  0.7881  C.ar  1  UNL1  -0.0400
57  C  -3.5867  4.8128  1.4825  C.ar  1  UNL1  0.0388
58  C  -3.3663  3.4232  1.4297  C.ar  1  UNL1  -0.0400
59  C  -4.2221  2.5992  0.6961  C.ar  1  UNL1  -0.0600
60  C  -5.3197  3.1363  0.0149  C.ar  1  UNL1  -0.0616
61  C  7.6416  3.8295  -2.2474  C.ar  1  UNL1  -0.0400
62  C  7.9727  4.3614  -3.4950  C.ar  1  UNL1  -0.0600
63  C  7.6335  5.6787  -3.8207  C.ar  1  UNL1  -0.0616
64  C  6.9623  6.4625  -2.8761  C.ar  1  UNL1  -0.0600
65  C  6.6412  5.9443  -1.6198  C.ar  1  UNL1  -0.0400
66  C  6.9746  4.6167  -1.2896  C.ar  1  UNL1  0.0388
67  C  9.4195  1.6031  2.0219  C.ar  1  UNL1  -0.0616
68  C  9.8528  2.7592  1.3640  C.ar  1  UNL1  -0.0600
69  C  8.9422  3.5819  0.6985  C.ar  1  UNL1  -0.0400
70  C  7.5744  3.2510  0.6652  C.ar  1  UNL1  0.0388
71  C  7.1447  2.0822  1.3215  C.ar  1  UNL1  -0.0400
72  C  8.0600  1.2743  1.9987  C.ar  1  UNL1  -0.0600
73  N  6.6454  4.0824  -0.0163  N.pl3  1  UNL1  -0.2692
74  N  0.8114  -0.3656  -0.7539  N.pl3  1  UNL1  -0.2692
75  N  1.6312  9.1907  -2.5334  N.pl3  1  UNL1  -0.2692
76  N  -2.7174  5.6569  2.2220  N.pl3  1  UNL1  -0.2692
77  C  1.5968  4.6365  -0.2693  C.3  1  UNL1  0.0729
78  H  -1.4030  0.7660  0.2558  H  1  UNL1  0.0636
79  H  -2.3980  0.3193  2.4838  H  1  UNL1  0.0618
80  H  -1.3437  -1.3358  4.0292  H  1  UNL1  0.0618
81  H  0.7339  -2.5297  3.3127  H  1  UNL1  0.0618
82  H  1.7431  -2.0657  1.0983  H  1  UNL1  0.0636
83  H  -0.2971  -2.7782  -1.1290  H  1  UNL1  0.0636
84  H  0.6596  -4.6517  -2.4445  H  1  UNL1  0.0618
85  H  2.8549  -4.3815  -3.6099  H  1  UNL1  0.0618
86  H  4.0831  -2.2123  -3.4243  H  1  UNL1  0.0618
87  H  3.1379  -0.3498  -2.0850  H  1  UNL1  0.0636
88  H  1.4378  1.8687  0.6084  H  1  UNL1  0.0640
89  H  0.2733  0.3528  -3.2682  H  1  UNL1  0.0636
90  H  0.3729  2.6390  -4.2225  H  1  UNL1  0.0624
91  H  0.6224  5.2578  -4.7170  H  1  UNL1  0.0624
92  H  0.9755  7.7112  -4.6572  H  1  UNL1  0.0636
93  H  1.9224  7.5196  -0.4438  H  1  UNL1  0.0640
94  H  0.6103  12.7550  -5.2725  H  1  UNL1  0.0618
95  H  2.2257  11.3069  -4.0695  H  1  UNL1  0.0636
96  H  -1.0361  8.9244  -2.5541  H  1  UNL1  0.0636
97  H  -2.6512  10.3546  -3.7792  H  1  UNL1  0.0618
98  H  -1.8416  12.2850  -5.1458  H  1  UNL1  0.0618
99  H  1.5178  11.4178  -1.0448  H  1  UNL1  0.0636
100  H  3.3949  12.4609  0.1916  H  1  UNL1  0.0618
101  H  5.6648  11.4120  0.1613  H  1  UNL1  0.0618
102  H  6.0243  9.3102  -1.1407  H  1  UNL1  0.0618
103  H  4.1514  8.2796  -2.4000  H  1  UNL1  0.0636
104  H  6.1950  4.6694  2.5505  H  1  UNL1  0.0636
105  H  4.2725  4.1148  -1.2802  H  1  UNL1  0.0640
106  H  4.0012  5.1178  3.6169  H  1  UNL1  0.0624
107  H  -1.0345  5.8102  4.2903  H  1  UNL1  0.0636
108  H  1.4271  5.5170  4.2373  H  1  UNL1  0.0624
109  H  -1.2624  5.0534  0.0404  H  1  UNL1  0.0640
110  H  -4.7379  9.6556  5.1185  H  1  UNL1  0.0618
111  H  -2.6983  10.0171  3.7189  H  1  UNL1  0.0618
112  H  -1.7681  8.1618  2.3601  H  1  UNL1  0.0636
113  H  -4.8706  5.5398  3.8135  H  1  UNL1  0.0636
114  H  -5.8193  7.4018  5.1506  H  1  UNL1  0.0618
115  H  -6.3956  4.9527  -0.4626  H  1  UNL1  0.0618
116  H  -4.8650  6.4261  0.8144  H  1  UNL1  0.0636
117  H  -2.5180  2.9940  1.9669  H  1  UNL1  0.0636
118  H  -4.0364  1.5217  0.6684  H  1  UNL1  0.0618
119  H  -5.9901  2.4868  -0.5533  H  1  UNL1  0.0618
120  H  7.8987  2.7959  -2.0072  H  1  UNL1  0.0636
121  H  8.4897  3.7322  -4.2249  H  1  UNL1  0.0618
122  H  7.8885  6.0899  -4.8005  H  1  UNL1  0.0618
123  H  6.6964  7.4963  -3.1144  H  1  UNL1  0.0618
124  H  6.1266  6.5666  -0.8847  H  1  UNL1  0.0636
125  H  10.1341  0.9650  2.5476  H  1  UNL1  0.0618
126  H  10.9112  3.0338  1.3788  H  1  UNL1  0.0618
127  H  9.2869  4.4894  0.1986  H  1  UNL1  0.0636
128  H  6.0871  1.8119  1.2977  H  1  UNL1  0.0636
129  H  7.7060  0.3705  2.5024  H  1  UNL1  0.0618
@<TRIPOS>BOND
     1    98    30    1
     2    94    25    1
     3    30    25   ar
     4    30    29   ar
     5    25    26   ar
     6   122    63    1
     7    97    29    1
     8    29    28   ar
     9    26    95    1
    10    26    27   ar
    11    92    22    1
    12    91    21    1
    13    63    64   ar
    14    63    62   ar
    15   123    64    1
    16    90    17    1
    17    85     9    1
    18   121    62    1
    19    28    27   ar
    20    28    96    1
    21    22    21   ar
    22    22    23   ar
    23    21    20   ar
    24    27    75    1
    25    64    65   ar
    26    62    61   ar
    27     9    10   ar
    28     9     8   ar
    29    86    10    1
    30    84     8    1
    31    17    16   ar
    32    17    18   ar
    33    89    16    1
    34    10    11   ar
    35     8     7   ar
    36    75    23    1
    37    75    31    1
    38    23    24   ar
    39    20    18    1
    40    20    19   ar
    41    16    15   ar
    42    65   124    1
    43    65    66   ar
    44    18    13   ar
    45    99    32    1
    46    61   120    1
    47    61    66   ar
    48    11    87    1
    49    11    12   ar
    50    31    32   ar
    51    31    36   ar
    52     7    83    1
    53     7    12   ar
    54    32    33   ar
    55    66    73    1
    56    24    19   ar
    57    24    93    1
    58    19    77    1
    59    12    74    1
    60   105    39    1
    61   103    36    1
    62    36    35   ar
    63    15    74    1
    64    15    14   ar
    65    13    14   ar
    66    13    77    1
    67    33   100    1
    68    33    34   ar
    69   119    60    1
    70   118    59    1
    71    74     1    1
    72    14    88    1
    73    39    40   ar
    74    39    38   ar
    75    77    40    1
    76    77    46    1
    77    35    34   ar
    78    35   102    1
    79    73    38    1
    80    73    70    1
    81    60    59   ar
    82    60    55   ar
    83    59    58   ar
    84    34   101    1
    85   109    47    1
    86    40    41   ar
    87    38    37   ar
    88    70    71   ar
    89    70    69   ar
    90   115    55    1
    91    55    56   ar
    92   117    58    1
    93    58    57   ar
    94   128    71    1
    95   127    69    1
    96     1     6   ar
    97     1     2   ar
    98    82     6    1
    99    46    47   ar
   100    46    45   ar
   101    47    48   ar
   102    71    72   ar
   103    69    68   ar
   104    78     2    1
   105     6     5   ar
   106    56    57   ar
   107    56   116    1
   108    57    76    1
   109     2     3   ar
   110    41    45    1
   111    41    42   ar
   112    37   104    1
   113    37    42   ar
   114    72   129    1
   115    72    67   ar
   116    68   126    1
   117    68    67   ar
   118    45    44   ar
   119    48    76    1
   120    48    43   ar
   121    76    52    1
   122    67   125    1
   123    42   106    1
   124     5    81    1
   125     5     4   ar
   126   112    51    1
   127     3     4   ar
   128     3    79    1
   129    44    43   ar
   130    44   108    1
   131    43   107    1
   132    52    51   ar
   133    52    53   ar
   134     4    80    1
   135    51    50   ar
   136   113    53    1
   137    53    54   ar
   138    50   111    1
   139    50    49   ar
   140    54    49   ar
   141    54   114    1
   142    49   110    1