@<TRIPOS>MOLECULE
molecule.pdb
 94 105 0 0 0
SMALL
GASTEIGER

@<TRIPOS>ATOM
1  N  45.2642  -13.5777  19.0194  N.ar  0  MKU0  -0.3087
2  C  44.0425  -14.0658  18.5337  C.ar  0  MKU0  0.0549
3  C1  45.2928  -13.7568  20.4100  C.ar  0  MKU0  0.0549
4  C2  46.2986  -12.9966  18.2341  C.ar  0  MKU0  0.0473
5  C3  43.2787  -14.5651  19.6269  C.ar  0  MKU0  0.0079
6  C4  43.5445  -14.0732  17.2261  C.ar  0  MKU0  -0.0372
7  C5  44.0735  -14.3671  20.8209  C.ar  0  MKU0  0.0079
8  C6  46.3093  -13.4590  21.3244  C.ar  0  MKU0  -0.0372
9  C7  46.7614  -11.7017  18.5127  C.ar  0  MKU0  -0.0361
10  C8  46.8701  -13.7100  17.1697  C.ar  0  MKU0  -0.0361
11  C9  42.0016  -15.0936  19.3889  C.ar  0  MKU0  -0.0520
12  C10  42.2711  -14.6061  17.0191  C.ar  0  MKU0  -0.0598
13  C11  43.8759  -14.6635  22.1773  C.ar  0  MKU0  -0.0520
14  C12  46.0842  -13.7640  22.6678  C.ar  0  MKU0  -0.0598
15  C13  47.7849  -11.1385  17.7550  C.ar  0  MKU0  -0.0381
16  C14  47.8685  -13.1345  16.3879  C.ar  0  MKU0  -0.0381
17  C15  41.5067  -15.1155  18.0856  C.ar  0  MKU0  -0.0611
18  C16  44.8804  -14.3558  23.0941  C.ar  0  MKU0  -0.0611
19  C17  48.3471  -11.8424  16.6738  C.ar  0  MKU0  0.0389
20  N1  49.3778  -11.2587  15.8864  N.pl3  0  MKU0  -0.2692
21  C18  50.4767  -12.0491  15.4506  C.ar  0  MKU0  0.0389
22  C19  49.3097  -9.8811  15.5371  C.ar  0  MKU0  0.0389
23  C20  51.0020  -11.8949  14.1541  C.ar  0  MKU0  -0.0381
24  C21  51.0613  -13.0011  16.3063  C.ar  0  MKU0  -0.0381
25  C22  50.4614  -9.0740  15.5726  C.ar  0  MKU0  -0.0381
26  C23  48.0885  -9.2993  15.1506  C.ar  0  MKU0  -0.0381
27  C24  52.0910  -12.6547  13.7349  C.ar  0  MKU0  -0.0361
28  C25  52.1269  -13.7853  15.8723  C.ar  0  MKU0  -0.0361
29  C26  50.3926  -7.7250  15.2334  C.ar  0  MKU0  -0.0361
30  C27  48.0221  -7.9506  14.8100  C.ar  0  MKU0  -0.0361
31  C28  52.6600  -13.6140  14.5859  C.ar  0  MKU0  0.0473
32  C29  49.1727  -7.1488  14.8485  C.ar  0  MKU0  0.0473
33  N2  53.7622  -14.4018  14.1510  N.ar  0  MKU0  -0.3087
34  N3  49.1030  -5.7707  14.5028  N.ar  0  MKU0  -0.3087
35  C30  53.7855  -15.2236  13.0149  C.ar  0  MKU0  0.0549
36  C31  55.0091  -14.4881  14.7871  C.ar  0  MKU0  0.0549
37  C32  49.8660  -5.1335  13.5130  C.ar  0  MKU0  0.0549
38  C33  48.2598  -4.8186  15.0947  C.ar  0  MKU0  0.0549
39  C34  55.0639  -15.8440  12.9214  C.ar  0  MKU0  0.0079
40  C35  52.7709  -15.4898  12.0888  C.ar  0  MKU0  -0.0372
41  C36  55.8417  -15.3772  14.0498  C.ar  0  MKU0  0.0079
42  C37  55.4719  -13.8271  15.9303  C.ar  0  MKU0  -0.0372
43  C38  49.5076  -3.7561  13.4708  C.ar  0  MKU0  0.0079
44  C39  50.8133  -5.6723  12.6353  C.ar  0  MKU0  -0.0372
45  C40  48.4849  -3.5561  14.4759  C.ar  0  MKU0  0.0079
46  C41  47.3475  -4.9684  16.1451  C.ar  0  MKU0  -0.0372
47  C42  55.3219  -16.7318  11.8669  C.ar  0  MKU0  -0.0520
48  C43  53.0566  -16.3764  11.0493  C.ar  0  MKU0  -0.0598
49  C44  57.1537  -15.6119  14.4863  C.ar  0  MKU0  -0.0520
50  C45  56.7813  -14.0808  16.3419  C.ar  0  MKU0  -0.0598
51  C46  50.1294  -2.9116  12.5397  C.ar  0  MKU0  -0.0520
52  C47  51.4166  -4.8082  11.7201  C.ar  0  MKU0  -0.0598
53  C48  47.7640  -2.4362  14.9153  C.ar  0  MKU0  -0.0520
54  C49  46.6438  -3.8370  16.5609  C.ar  0  MKU0  -0.0598
55  C50  54.3184  -16.9894  10.9338  C.ar  0  MKU0  -0.0611
56  C51  57.6147  -14.9661  15.6328  C.ar  0  MKU0  -0.0611
57  C52  51.0841  -3.4413  11.6726  C.ar  0  MKU0  -0.0611
58  C53  46.8439  -2.5837  15.9523  C.ar  0  MKU0  -0.0611
59  H  44.1254  -13.6698  16.3943  H  0  MKU0  0.0638
60  H1  47.2510  -13.0109  21.0014  H  0  MKU0  0.0638
61  H2  46.3165  -11.1372  19.3351  H  0  MKU0  0.0639
62  H3  46.5219  -14.7222  16.9524  H  0  MKU0  0.0639
63  H4  41.3995  -15.4813  20.2150  H  0  MKU0  0.0624
64  H5  41.8603  -14.6232  16.0065  H  0  MKU0  0.0618
65  H6  42.9471  -15.1328  22.5124  H  0  MKU0  0.0624
66  H7  46.8631  -13.5406  23.4012  H  0  MKU0  0.0618
67  H8  48.1457  -10.1353  17.9910  H  0  MKU0  0.0637
68  H9  48.2952  -13.6955  15.5540  H  0  MKU0  0.0637
69  H10  40.5139  -15.5268  17.8885  H  0  MKU0  0.0618
70  H11  44.7362  -14.5805  24.1535  H  0  MKU0  0.0618
71  H12  50.5593  -11.1616  13.4769  H  0  MKU0  0.0637
72  H13  50.6648  -13.1355  17.3148  H  0  MKU0  0.0637
73  H14  51.4134  -9.5068  15.8868  H  0  MKU0  0.0637
74  H15  47.1892  -9.9166  15.1013  H  0  MKU0  0.0637
75  H16  52.5049  -12.5103  12.7345  H  0  MKU0  0.0639
76  H17  52.5583  -14.5366  16.5375  H  0  MKU0  0.0639
77  H18  51.2863  -7.1003  15.2960  H  0  MKU0  0.0639
78  H19  47.0753  -7.5169  14.4807  H  0  MKU0  0.0639
79  H20  51.7854  -15.0282  12.1769  H  0  MKU0  0.0638
80  H21  54.8366  -13.1298  16.4801  H  0  MKU0  0.0638
81  H22  51.0699  -6.7332  12.6571  H  0  MKU0  0.0638
82  H23  47.1933  -5.9339  16.6308  H  0  MKU0  0.0638
83  H24  56.2968  -17.2187  11.7784  H  0  MKU0  0.0624
84  H25  52.2805  -16.6002  10.3131  H  0  MKU0  0.0618
85  H26  57.8087  -16.2907  13.9335  H  0  MKU0  0.0624
86  H27  57.1656  -13.5767  17.2322  H  0  MKU0  0.0618
87  H28  49.8673  -1.8513  12.4917  H  0  MKU0  0.0624
88  H29  52.1601  -5.2054  11.0246  H  0  MKU0  0.0618
89  H30  47.9232  -1.4583  14.4529  H  0  MKU0  0.0624
90  H31  45.9253  -3.9291  17.3793  H  0  MKU0  0.0618
91  H32  54.5092  -17.6778  10.1071  H  0  MKU0  0.0618
92  H33  58.6343  -15.1432  15.9831  H  0  MKU0  0.0618
93  H34  51.5765  -2.7921  10.9447  H  0  MKU0  0.0618
94  H35  46.2752  -1.7186  16.3011  H  0  MKU0  0.0618
@<TRIPOS>BOND
     1    91    55    1
     2    84    48    1
     3    93    57    1
     4    55    48   ar
     5    55    47   ar
     6    88    52    1
     7    48    40   ar
     8    57    52   ar
     9    57    51   ar
    10    52    44   ar
    11    83    47    1
    12    47    39   ar
    13    40    79    1
    14    40    35   ar
    15    87    51    1
    16    51    43   ar
    17    44    81    1
    18    44    37   ar
    19    75    27    1
    20    39    35   ar
    21    39    41   ar
    22    35    33   ar
    23    43    37   ar
    24    43    45   ar
    25    71    23    1
    26    37    34   ar
    27    27    23   ar
    28    27    31   ar
    29    85    49    1
    30    41    49   ar
    31    41    36   ar
    32    23    21   ar
    33    33    31    1
    34    33    36   ar
    35    89    53    1
    36    78    30    1
    37    49    56   ar
    38    45    53   ar
    39    45    38   ar
    40    34    32    1
    41    34    38   ar
    42    31    28   ar
    43    36    42   ar
    44    30    32   ar
    45    30    26   ar
    46    32    29   ar
    47    53    58   ar
    48    74    26    1
    49    38    46   ar
    50    26    22   ar
    51    29    77    1
    52    29    25   ar
    53    21    20    1
    54    21    24   ar
    55    68    16    1
    56    22    25   ar
    57    22    20    1
    58    56    92    1
    59    56    50   ar
    60    25    73    1
    61    42    50   ar
    62    42    80    1
    63    20    19    1
    64    28    24   ar
    65    28    76    1
    66    58    94    1
    67    58    54   ar
    68    64    12    1
    69    46    54   ar
    70    46    82    1
    71    50    86    1
    72    24    72    1
    73    16    19   ar
    74    16    10   ar
    75    59     6    1
    76    54    90    1
    77    19    15   ar
    78    62    10    1
    79    12     6   ar
    80    12    17   ar
    81    10     4   ar
    82     6     2   ar
    83    15    67    1
    84    15     9   ar
    85    69    17    1
    86    17    11   ar
    87     4     9   ar
    88     4     1    1
    89     2     1   ar
    90     2     5   ar
    91     9    61    1
    92     1     3   ar
    93    11     5   ar
    94    11    63    1
    95     5     7   ar
    96     3     7   ar
    97     3     8   ar
    98     7    13   ar
    99    60     8    1
   100     8    14   ar
   101    13    65    1
   102    13    18   ar
   103    14    18   ar
   104    14    66    1
   105    18    70    1
