@<TRIPOS>MOLECULE
TPD.xyz
 72 77 0 0 0
SMALL
GASTEIGER

@<TRIPOS>ATOM
      1 C          -9.3883    0.2692   -0.3143 C.ar    1  LIG1       -0.0487
      2 C          -8.9063    1.2545   -1.1976 C.ar    1  LIG1       -0.0587
      3 C          -7.6456    1.1170   -1.7885 C.ar    1  LIG1       -0.0597
      4 C          -6.8473    0.0030   -1.5198 C.ar    1  LIG1       -0.0400
      5 C          -7.3129   -0.9894   -0.6291 C.ar    1  LIG1        0.0390
      6 C          -8.5828   -0.8452   -0.0289 C.ar    1  LIG1       -0.0371
      7 C          -8.1483   -3.7819   -1.1241 C.ar    1  LIG1       -0.0400
      8 C          -8.7502   -5.0368   -1.0091 C.ar    1  LIG1       -0.0600
      9 C          -8.3372   -5.9360   -0.0181 C.ar    1  LIG1       -0.0616
     10 C          -7.3167   -5.5689    0.8679 C.ar    1  LIG1       -0.0600
     11 C          -6.7134   -4.3128    0.7748 C.ar    1  LIG1       -0.0400
     12 C          -7.1219   -3.4050   -0.2285 C.ar    1  LIG1        0.0388
     13 C          -3.2383   -0.6967    0.7390 C.ar    1  LIG1       -0.0523
     14 C          -4.6104   -0.8389    0.5360 C.ar    1  LIG1       -0.0394
     15 C          -5.1202   -1.9799   -0.1242 C.ar    1  LIG1        0.0388
     16 C          -4.2148   -2.9708   -0.5673 C.ar    1  LIG1       -0.0394
     17 C          -2.8467   -2.8285   -0.3381 C.ar    1  LIG1       -0.0523
     18 C          -2.3285   -1.6892    0.3148 C.ar    1  LIG1       -0.0178
     19 C          -0.2277   -0.2972    0.3512 C.ar    1  LIG1       -0.0523
     20 C          -0.8702   -1.5381    0.5503 C.ar    1  LIG1       -0.0178
     21 C          -0.0866   -2.6293    0.9837 C.ar    1  LIG1       -0.0523
     22 C           1.2798   -2.4880    1.2245 C.ar    1  LIG1       -0.0394
     23 C           1.9158   -1.2438    1.0155 C.ar    1  LIG1        0.0388
     24 C           1.1418   -0.1496    0.5678 C.ar    1  LIG1       -0.0394
     25 C           3.5039    1.8901    3.5117 C.ar    1  LIG1       -0.0487
     26 C           3.0549    0.7012    2.9136 C.ar    1  LIG1       -0.0371
     27 C           3.7836    0.1023    1.8632 C.ar    1  LIG1        0.0390
     28 C           4.9829    0.7020    1.4185 C.ar    1  LIG1       -0.0400
     29 C           5.4329    1.8759    2.0263 C.ar    1  LIG1       -0.0597
     30 C           4.7028    2.4738    3.0597 C.ar    1  LIG1       -0.0587
     31 C           4.2089   -2.1254    0.9074 C.ar    1  LIG1        0.0388
     32 C           5.3101   -2.4263    1.7410 C.ar    1  LIG1       -0.0400
     33 C           6.1959   -3.4466    1.3879 C.ar    1  LIG1       -0.0600
     34 C           5.9964   -4.1896    0.2177 C.ar    1  LIG1       -0.0616
     35 C           4.9045   -3.8978   -0.6092 C.ar    1  LIG1       -0.0600
     36 C           4.0180   -2.8707   -0.2785 C.ar    1  LIG1       -0.0400
     37 N           3.3055   -1.0902    1.2572 N.pl3   1  LIG1       -0.2692
     38 N          -6.5132   -2.1273   -0.3361 N.pl3   1  LIG1       -0.2692
     39 C           2.7018    2.5310    4.6063 C.3     1  LIG1       -0.0397
     40 C         -10.7250    0.4262    0.3496 C.3     1  LIG1       -0.0397
     41 H          -9.5211    2.1380   -1.4282 H       1  LIG1        0.0620
     42 H          -7.2818    1.8893   -2.4832 H       1  LIG1        0.0618
     43 H          -5.8641   -0.0984   -2.0024 H       1  LIG1        0.0636
     44 H          -8.9428   -1.6153    0.6709 H       1  LIG1        0.0639
     45 H          -8.4751   -3.0892   -1.9139 H       1  LIG1        0.0636
     46 H          -9.5475   -5.3223   -1.7121 H       1  LIG1        0.0618
     47 H          -8.8118   -6.9247    0.0644 H       1  LIG1        0.0618
     48 H          -6.9929   -6.2687    1.6532 H       1  LIG1        0.0618
     49 H          -5.9224   -4.0329    1.4867 H       1  LIG1        0.0636
     50 H          -2.8743    0.1950    1.2729 H       1  LIG1        0.0624
     51 H          -5.2951   -0.0585    0.9003 H       1  LIG1        0.0636
     52 H          -4.5845   -3.8604   -1.0989 H       1  LIG1        0.0636
     53 H          -2.1660   -3.6110   -0.7082 H       1  LIG1        0.0624
     54 H          -0.8009    0.5698   -0.0127 H       1  LIG1        0.0624
     55 H          -0.5569   -3.6066    1.1733 H       1  LIG1        0.0624
     56 H           1.8580   -3.3515    1.5855 H       1  LIG1        0.0636
     57 H           1.6171    0.8258    0.3854 H       1  LIG1        0.0636
     58 H           2.1251    0.2298    3.2677 H       1  LIG1        0.0639
     59 H           5.5607    0.2516    0.5980 H       1  LIG1        0.0636
     60 H           6.3672    2.3421    1.6782 H       1  LIG1        0.0618
     61 H           5.0732    3.4032    3.5187 H       1  LIG1        0.0620
     62 H           5.4707   -1.8611    2.6712 H       1  LIG1        0.0636
     63 H           7.0498   -3.6739    2.0441 H       1  LIG1        0.0618
     64 H           6.6933   -4.9973   -0.0504 H       1  LIG1        0.0618
     65 H           4.7463   -4.4733   -1.5340 H       1  LIG1        0.0618
     66 H           3.1724   -2.6440   -0.9451 H       1  LIG1        0.0636
     67 H           3.3151    3.1976    5.2287 H       1  LIG1        0.0278
     68 H           1.8825    3.1385    4.1855 H       1  LIG1        0.0278
     69 H           2.2412    1.7818    5.2669 H       1  LIG1        0.0278
     70 H         -11.4319    0.9852   -0.2802 H       1  LIG1        0.0278
     71 H         -11.1813   -0.5452    0.5880 H       1  LIG1        0.0278
     72 H         -10.6262    0.9811    1.2982 H       1  LIG1        0.0278
@<TRIPOS>BOND
     1    42     3    1
     2    43     4    1
     3    45     7    1
     4     3     4   ar
     5     3     2   ar
     6    46     8    1
     7    65    35    1
     8     4     5   ar
     9    41     2    1
    10     2     1   ar
    11     7     8   ar
    12     7    12   ar
    13    52    16    1
    14     8     9   ar
    15    66    36    1
    16    53    17    1
    17     5    38    1
    18     5     6   ar
    19    35    36   ar
    20    35    34   ar
    21    16    17   ar
    22    16    15   ar
    23    17    18   ar
    24    38    12    1
    25    38    15    1
    26     1     6   ar
    27     1    40    1
    28    70    40    1
    29    36    31   ar
    30    12    11   ar
    31    15    14   ar
    32    64    34    1
    33     6    44    1
    34     9    47    1
    35     9    10   ar
    36    54    19    1
    37    34    33   ar
    38    18    20    1
    39    18    13   ar
    40    40    71    1
    41    40    72    1
    42    19    20   ar
    43    19    24   ar
    44    57    24    1
    45    14    13   ar
    46    14    51    1
    47    20    21   ar
    48    24    23   ar
    49    59    28    1
    50    13    50    1
    51    11    10   ar
    52    11    49    1
    53    10    48    1
    54    31    37    1
    55    31    32   ar
    56    21    55    1
    57    21    22   ar
    58    23    22   ar
    59    23    37    1
    60    22    56    1
    61    37    27    1
    62    33    32   ar
    63    33    63    1
    64    28    27   ar
    65    28    29   ar
    66    60    29    1
    67    32    62    1
    68    27    26   ar
    69    29    30   ar
    70    26    58    1
    71    26    25   ar
    72    30    25   ar
    73    30    61    1
    74    25    39    1
    75    68    39    1
    76    39    67    1
    77    39    69    1
