@<TRIPOS>MOLECULE
Znpc_b3lyp.xyz
 57 68 0 0 0
SMALL
GASTEIGER

@<TRIPOS>ATOM
      1 C          -4.0483    5.1332   -3.3493 C.ar    1  LIG1        0.0000
      2 C          -3.2135    6.2545   -3.3614 C.ar    1  LIG1        0.0000
      3 C          -3.8079    7.5078   -3.5285 C.ar    1  LIG1        0.0000
      4 C          -5.2035    7.6385   -3.6800 C.ar    1  LIG1        0.0000
      5 C          -6.0397    6.5191   -3.6686 C.ar    1  LIG1        0.0000
      6 C          -5.4471    5.2642   -3.5015 C.ar    1  LIG1        0.0000
      7 N          -4.9695    3.0263   -3.2596 N.ar    1  LIG1        0.0000
      8 C          -3.7780    3.7006   -3.1982 C.ar    1  LIG1        0.0000
      9 C          -6.0018    3.9089   -3.4406 C.ar    1  LIG1        0.0000
     10 N          -7.2949    3.6255   -3.5482 N.2     1  LIG1        0.0000
     11 N          -2.5669    3.1819   -3.0312 N.2     1  LIG1        0.0000
     12 C          -8.0503    0.1793   -3.3263 C.ar    1  LIG1        0.0000
     13 N          -7.1604    1.2213   -3.3229 N.ar    1  LIG1        0.0000
     14 C          -7.8232    2.4081   -3.4967 C.ar    1  LIG1        0.0000
     15 C          -9.2557    2.1244   -3.6234 C.ar    1  LIG1        0.0000
     16 C          -9.3985    0.7223   -3.5165 C.ar    1  LIG1        0.0000
     17 C         -10.3675    2.9500   -3.8149 C.ar    1  LIG1        0.0000
     18 C         -11.6233    2.3433   -3.8973 C.ar    1  LIG1        0.0000
     19 C         -11.7657    0.9446   -3.7908 C.ar    1  LIG1        0.0000
     20 C         -10.6560    0.1176   -3.5990 C.ar    1  LIG1        0.0000
     21 N          -7.7782   -1.1130   -3.1856 N.2     1  LIG1        0.0000
     22 C          -4.3438   -1.8397   -2.7703 C.ar    1  LIG1        0.0000
     23 N          -5.3760   -0.9572   -2.9533 N.ar    1  LIG1        0.0000
     24 C          -6.5673   -1.6315   -3.0157 C.ar    1  LIG1        0.0000
     25 C          -6.2974   -3.0640   -2.8627 C.ar    1  LIG1        0.0000
     26 C          -4.8988   -3.1948   -2.7081 C.ar    1  LIG1        0.0000
     27 C          -7.1322   -4.1852   -2.8508 C.ar    1  LIG1        0.0000
     28 C          -6.5381   -5.4383   -2.6810 C.ar    1  LIG1        0.0000
     29 C          -5.1428   -5.5688   -2.5265 C.ar    1  LIG1        0.0000
     30 C          -4.3065   -4.4495   -2.5381 C.ar    1  LIG1        0.0000
     31 C          -2.2948    1.8896   -2.8904 C.ar    1  LIG1        0.0000
     32 N          -3.1852    0.8479   -2.8885 N.ar    1  LIG1        0.0000
     33 C          -2.5221   -0.3391   -2.7172 C.ar    1  LIG1        0.0000
     34 C          -1.0889   -0.0559   -2.5977 C.ar    1  LIG1        0.0000
     35 C          -0.9459    1.3459   -2.7071 C.ar    1  LIG1        0.0000
     36 C           0.0237   -0.8821   -2.4128 C.ar    1  LIG1        0.0000
     37 C           1.2804   -0.2762   -2.3399 C.ar    1  LIG1        0.0000
     38 C           1.4231    1.1222   -2.4494 C.ar    1  LIG1        0.0000
     39 C           0.3127    1.9499   -2.6341 C.ar    1  LIG1        0.0000
     40 N          -3.0507   -1.5563   -2.6637 N.2     1  LIG1        0.0000
     41 ZN         -5.1729    1.0347   -3.1052 Zn      1  LIG1        0.0000
     42 H          -2.1334    6.1430   -3.2430 H       1  LIG1        0.0000
     43 H          -3.1832    8.4049   -3.5420 H       1  LIG1        0.0000
     44 H          -5.6356    8.6346   -3.8082 H       1  LIG1        0.0000
     45 H          -7.1218    6.6108   -3.7850 H       1  LIG1        0.0000
     46 H         -10.2469    4.0325   -3.8968 H       1  LIG1        0.0000
     47 H         -12.5131    2.9605   -4.0472 H       1  LIG1        0.0000
     48 H         -12.7634    0.5028   -3.8601 H       1  LIG1        0.0000
     49 H         -10.7569   -0.9668   -3.5155 H       1  LIG1        0.0000
     50 H          -8.2120   -4.0739   -2.9714 H       1  LIG1        0.0000
     51 H          -7.1629   -6.3354   -2.6676 H       1  LIG1        0.0000
     52 H          -4.7110   -6.5648   -2.3959 H       1  LIG1        0.0000
     53 H          -3.2246   -4.5410   -2.4195 H       1  LIG1        0.0000
     54 H          -0.0971   -1.9644   -2.3290 H       1  LIG1        0.0000
     55 H           2.1708   -0.8938   -2.1955 H       1  LIG1        0.0000
     56 H           2.4216    1.5633   -2.3881 H       1  LIG1        0.0000
     57 H           0.4138    3.0341   -2.7200 H       1  LIG1        0.0000
@<TRIPOS>BOND
     1    47    18    1
     2    18    17   ar
     3    18    19   ar
     4    46    17    1
     5    48    19    1
     6    17    15   ar
     7    44     4    1
     8    19    20   ar
     9    45     5    1
    10     4     5   ar
    11     4     3   ar
    12     5     6   ar
    13    15    16   ar
    14    15    14   ar
    15    20    16   ar
    16    20    49    1
    17    10    14    2
    18    10     9    1
    19    43     3    1
    20     3     2   ar
    21    16    12   ar
    22     6     9   ar
    23     6     1   ar
    24    14    13   ar
    25     9     7   ar
    26     2     1   ar
    27     2    42    1
    28     1     8   ar
    29    12    13   ar
    30    12    21    2
    31    13    41    1
    32     7     8   ar
    33     7    41    1
    34     8    11    2
    35    21    24    1
    36    41    23    1
    37    41    32    1
    38    11    31    1
    39    24    23   ar
    40    24    25   ar
    41    50    27    1
    42    23    22   ar
    43    31    32   ar
    44    31    35   ar
    45    32    33   ar
    46    25    27   ar
    47    25    26   ar
    48    27    28   ar
    49    22    26   ar
    50    22    40    2
    51    57    39    1
    52    33    40    1
    53    33    34   ar
    54    26    30   ar
    55    35    39   ar
    56    35    34   ar
    57    28    51    1
    58    28    29   ar
    59    39    38   ar
    60    34    36   ar
    61    30    29   ar
    62    30    53    1
    63    29    52    1
    64    38    56    1
    65    38    37   ar
    66    36    37   ar
    67    36    54    1
    68    37    55    1
