@<TRIPOS>MOLECULE
molecule.pdb
 108 138 0 0 0
SMALL
GASTEIGER

@<TRIPOS>ATOM
1  C  -67.4375  10.7382  327.3636  C.3  1  UNL1  0.0766
2  C  -66.9635  11.1282  328.5512  C.3  1  UNL1  0.0766
3  C  -67.5988  10.3841  329.6946  C.3  1  UNL1  0.2012
4  C  -68.8390  9.6418  329.0475  C.3  1  UNL1  0.2234
5  C  -68.4799  9.6508  327.4762  C.3  1  UNL1  0.2013
6  C  -67.8882  13.6960  330.7438  C.3  1  UNL1  0.0766
7  C  -69.1482  13.2799  330.9060  C.3  1  UNL1  0.0766
8  C  -69.2291  11.8179  331.2543  C.3  1  UNL1  0.2012
9  C  -67.7746  11.2592  330.9692  C.3  1  UNL1  0.2234
10  C  -66.8751  12.5963  330.9577  C.3  1  UNL1  0.2013
11  C  -71.5501  12.0692  328.6651  C.3  1  UNL1  0.0766
12  C  -70.8155  11.0394  328.2328  C.3  1  UNL1  0.0766
13  C  -70.2466  10.2256  329.3639  C.3  1  UNL1  0.2012
14  C  -70.4808  11.1159  330.6526  C.3  1  UNL1  0.2234
15  C  -71.6241  12.1453  330.1718  C.3  1  UNL1  0.2013
16  C  -71.1242  15.8705  329.5996  C.3  1  UNL1  0.2014
17  C  -72.2362  14.7406  329.6444  C.3  1  UNL1  0.2283
18  C  -71.6827  13.6261  330.7006  C.3  1  UNL1  0.2259
19  C  -70.3015  14.1698  331.2418  C.3  1  UNL1  0.2014
20  C  -70.1360  15.6630  330.8101  C.3  1  UNL1  0.2258
21  C  -70.2923  11.6799  324.8215  C.3  1  UNL1  0.2014
22  C  -69.1758  10.5703  325.0154  C.3  1  UNL1  0.2283
23  C  -69.5942  9.7636  326.3712  C.3  1  UNL1  0.2259
24  C  -70.9408  10.4137  326.8811  C.3  1  UNL1  0.2014
25  C  -71.5101  11.3492  325.7659  C.3  1  UNL1  0.2258
26  C  -65.2082  14.0942  327.8872  C.3  1  UNL1  0.2014
27  C  -65.3147  14.2443  329.4626  C.3  1  UNL1  0.2283
28  C  -65.6175  12.7417  330.0237  C.3  1  UNL1  0.2259
29  C  -65.6398  11.7895  328.7630  C.3  1  UNL1  0.2014
30  C  -65.0793  12.5652  327.5274  C.3  1  UNL1  0.2258
31  C  -70.4639  16.0239  328.2728  C.3  1  UNL1  0.0766
32  C  -69.2054  16.4476  328.1196  C.3  1  UNL1  0.0766
33  C  -68.9528  17.0115  326.7473  C.3  1  UNL1  0.2012
34  C  -70.2173  16.5767  325.8987  C.3  1  UNL1  0.2234
35  C  -71.3055  16.2257  327.0348  C.3  1  UNL1  0.2013
36  C  -66.2628  14.8270  327.1320  C.3  1  UNL1  0.0766
37  C  -66.7249  14.4340  325.9408  C.3  1  UNL1  0.0766
38  C  -67.3541  15.5625  325.1688  C.3  1  UNL1  0.2012
39  C  -67.5131  16.7296  326.2276  C.3  1  UNL1  0.2234
40  C  -66.4846  16.2984  327.3908  C.3  1  UNL1  0.2013
41  C  -69.7867  13.0778  324.9197  C.3  1  UNL1  0.0766
42  C  -70.5307  14.1030  325.3461  C.3  1  UNL1  0.0766
43  C  -70.0068  15.4303  324.8677  C.3  1  UNL1  0.2012
44  C  -68.5633  15.1082  324.3011  C.3  1  UNL1  0.2234
45  C  -68.6204  13.5148  324.0651  C.3  1  UNL1  0.2013
46  C  -66.7009  10.9267  326.0826  C.3  1  UNL1  0.2014
47  C  -67.6377  11.0936  324.8138  C.3  1  UNL1  0.2283
48  C  -67.3536  12.6018  324.2577  C.3  1  UNL1  0.2259
49  C  -66.2497  13.2255  325.2006  C.3  1  UNL1  0.2014
50  C  -65.6432  12.0952  326.0935  C.3  1  UNL1  0.2258
51  C  -72.5923  12.7399  327.8385  C.3  1  UNL1  0.2014
52  C  -72.8073  14.2730  328.1831  C.3  1  UNL1  0.2283
53  C  -72.3732  15.0871  326.8367  C.3  1  UNL1  0.2259
54  C  -71.9606  13.9981  325.7689  C.3  1  UNL1  0.2014
55  C  -72.4004  12.5886  326.2815  C.3  1  UNL1  0.2258
56  C  -67.4706  15.1206  330.8680  C.3  1  UNL1  0.2014
57  C  -66.2171  15.5096  329.9777  C.3  1  UNL1  0.2283
58  C  -66.7685  16.6106  328.9064  C.3  1  UNL1  0.2259
59  C  -68.2961  16.8347  329.2412  C.3  1  UNL1  0.2014
60  C  -68.6194  16.1706  330.6187  C.3  1  UNL1  0.2258
61  F  -66.7010  9.3794  330.0435  F  1  UNL1  -0.2341
62  F  -68.8258  8.3499  329.4957  F  1  UNL1  -0.2315
63  F  -67.8316  8.4473  327.2356  F  1  UNL1  -0.2341
64  F  -69.3881  11.7612  332.6357  F  1  UNL1  -0.2341
65  F  -67.4104  10.4920  332.0410  F  1  UNL1  -0.2315
66  F  -66.3998  12.7358  332.2544  F  1  UNL1  -0.2341
67  F  -71.0896  9.1280  329.5086  F  1  UNL1  -0.2341
68  F  -70.9975  10.3052  331.6251  F  1  UNL1  -0.2315
69  F  -72.8283  11.5639  330.5440  F  1  UNL1  -0.2341
70  F  -71.7586  17.0925  329.8010  F  1  UNL1  -0.2341
71  F  -73.3127  15.3071  330.2714  F  1  UNL1  -0.2313
72  F  -72.5501  13.6316  331.7596  F  1  UNL1  -0.2314
73  F  -70.3509  14.1534  332.6316  F  1  UNL1  -0.2341
74  F  -70.6641  16.4072  331.8376  F  1  UNL1  -0.2314
75  F  -70.7573  11.5831  323.5135  F  1  UNL1  -0.2341
76  F  -69.3706  9.6700  324.0031  F  1  UNL1  -0.2313
77  F  -69.8960  8.4857  325.9846  F  1  UNL1  -0.2314
78  F  -71.8661  9.3916  327.0638  F  1  UNL1  -0.2341
79  F  -72.3465  10.5615  325.0119  F  1  UNL1  -0.2314
80  F  -64.0238  14.7052  327.4866  F  1  UNL1  -0.2341
81  F  -64.0466  14.5257  329.8931  F  1  UNL1  -0.2313
82  F  -64.5289  12.3799  330.7704  F  1  UNL1  -0.2314
83  F  -64.7674  10.7348  329.0086  F  1  UNL1  -0.2341
84  F  -63.7287  12.3119  327.5118  F  1  UNL1  -0.2314
85  F  -69.0463  18.3940  326.8777  F  1  UNL1  -0.2341
86  F  -70.6438  17.6740  325.2030  F  1  UNL1  -0.2315
87  F  -72.0309  17.3932  327.2287  F  1  UNL1  -0.2341
88  F  -66.3845  16.0001  324.2714  F  1  UNL1  -0.2341
89  F  -67.0606  17.8803  325.6433  F  1  UNL1  -0.2315
90  F  -65.2921  16.9423  327.0905  F  1  UNL1  -0.2341
91  F  -70.7771  15.7697  323.7593  F  1  UNL1  -0.2341
92  F  -68.4486  15.7300  323.0885  F  1  UNL1  -0.2315
93  F  -69.0078  13.3486  322.7425  F  1  UNL1  -0.2341
94  F  -65.9905  9.7402  325.9272  F  1  UNL1  -0.2341
95  F  -67.1136  10.2673  323.8570  F  1  UNL1  -0.2313
96  F  -66.7810  12.4577  323.0228  F  1  UNL1  -0.2314
97  F  -65.2203  13.7017  324.3959  F  1  UNL1  -0.2341
98  F  -64.5636  11.6100  325.3954  F  1  UNL1  -0.2314
99  F  -73.7650  12.0670  328.1684  F  1  UNL1  -0.2341
100  F  -74.1623  14.4452  328.2698  F  1  UNL1  -0.2313
101  F  -73.5082  15.6897  326.3652  F  1  UNL1  -0.2314
102  F  -72.6790  14.2476  324.6045  F  1  UNL1  -0.2341
103  F  -73.6645  12.3894  325.7808  F  1  UNL1  -0.2314
104  F  -67.0928  15.2437  332.2016  F  1  UNL1  -0.2341
105  F  -65.3839  16.2161  330.8020  F  1  UNL1  -0.2313
106  F  -66.1269  17.7852  329.1930  F  1  UNL1  -0.2314
107  F  -68.5045  18.2014  329.3919  F  1  UNL1  -0.2341
108  F  -68.4197  17.1521  331.5596  F  1  UNL1  -0.2314
@<TRIPOS>BOND
     1     1    46    1
     2     1     5    1
     3     1     2    1
     4     2    29    1
     5     2     3    1
     6     3     4    1
     7     3    61    1
     8     3     9    1
     9     4     5    1
    10     4    13    1
    11     4    62    1
    12     5    23    1
    13     5    63    1
    14     6    56    1
    15     6    10    1
    16     6     7    1
    17     7    19    1
    18     7     8    1
    19     8    14    1
    20     8     9    1
    21     8    64    1
    22     9    10    1
    23     9    65    1
    24    10    28    1
    25    10    66    1
    26    11    51    1
    27    11    12    1
    28    11    15    1
    29    12    24    1
    30    12    13    1
    31    13    67    1
    32    13    14    1
    33    14    15    1
    34    14    68    1
    35    15    69    1
    36    15    18    1
    37    16    31    1
    38    16    17    1
    39    16    70    1
    40    16    20    1
    41    17    52    1
    42    17    71    1
    43    17    18    1
    44    18    19    1
    45    18    72    1
    46    19    20    1
    47    19    73    1
    48    20    60    1
    49    20    74    1
    50    21    75    1
    51    21    41    1
    52    21    22    1
    53    21    25    1
    54    22    76    1
    55    22    47    1
    56    22    23    1
    57    23    77    1
    58    23    24    1
    59    24    25    1
    60    24    78    1
    61    25    79    1
    62    25    55    1
    63    26    36    1
    64    26    30    1
    65    26    80    1
    66    26    27    1
    67    27    81    1
    68    27    57    1
    69    27    28    1
    70    28    29    1
    71    28    82    1
    72    29    30    1
    73    29    83    1
    74    30    50    1
    75    30    84    1
    76    31    35    1
    77    31    32    1
    78    32    33    1
    79    32    59    1
    80    33    34    1
    81    33    39    1
    82    33    85    1
    83    34    43    1
    84    34    86    1
    85    34    35    1
    86    35    53    1
    87    35    87    1
    88    36    37    1
    89    36    40    1
    90    37    38    1
    91    37    49    1
    92    38    88    1
    93    38    44    1
    94    38    39    1
    95    39    89    1
    96    39    40    1
    97    40    90    1
    98    40    58    1
    99    41    45    1
   100    41    42    1
   101    42    43    1
   102    42    54    1
   103    43    91    1
   104    43    44    1
   105    44    92    1
   106    44    45    1
   107    45    93    1
   108    45    48    1
   109    46    47    1
   110    46    94    1
   111    46    50    1
   112    47    95    1
   113    47    48    1
   114    48    96    1
   115    48    49    1
   116    49    97    1
   117    49    50    1
   118    50    98    1
   119    51    55    1
   120    51    99    1
   121    51    52    1
   122    52    53    1
   123    52   100    1
   124    53    54    1
   125    53   101    1
   126    54   102    1
   127    54    55    1
   128    55   103    1
   129    56    57    1
   130    56    60    1
   131    56   104    1
   132    57    58    1
   133    57   105    1
   134    58   106    1
   135    58    59    1
   136    59   107    1
   137    59    60    1
   138    60   108    1
