@<TRIPOS>MOLECULE
C60F36.pdb
 96 126 0 0 0
SMALL
GASTEIGER

@<TRIPOS>ATOM
      1  C         -3.3840    1.1410    0.9650 C.3     0  P3G0        0.2016
      2  C1        -2.6860    2.1000    2.0050 C.3     0  P3G0        0.2345
      3  C2        -1.6970    3.1530    1.3510 C.3     0  P3G0        0.2186
      4  C3        -1.7390    3.4660   -0.2170 C.3     0  P3G0        0.2178
      5  C4        -2.2330    2.2860   -0.9890 C.2     0  P3G0        0.0234
      6  C5        -2.9890    1.3230   -0.4690 C.2     0  P3G0        0.0242
      7  C6        -2.9890   -0.2550    1.3780 C.2     0  P3G0        0.0242
      8  C7        -2.2350   -0.2860    2.4730 C.2     0  P3G0        0.0234
      9  C8        -2.0550    1.0660    3.1150 C.3     0  P3G0        0.2176
     10  C9        -0.5900    1.2980    3.5960 C.3     0  P3G0        0.2182
     11 C10        -0.2890    2.7040    1.5020 C.ar    0  P3G0        0.0096
     12 C11        -0.2340    3.8190   -0.6070 C.3     0  P3G0        0.2184
     13 C12         0.3090    3.4880   -2.0540 C.3     0  P3G0        0.2345
     14 C13        -0.5880    2.4660   -2.9210 C.3     0  P3G0        0.2182
     15 C14        -2.0530    2.1660   -2.4810 C.3     0  P3G0        0.2176
     16 C15        -2.6850    0.6890   -2.8210 C.3     0  P3G0        0.2345
     17 C16        -3.3830    0.2670   -1.4710 C.3     0  P3G0        0.2016
     18 C17        -2.9890   -1.0660   -0.9120 C.2     0  P3G0        0.0242
     19 C18        -3.3850   -1.4050    0.5040 C.3     0  P3G0        0.2016
     20 C19        -1.7420   -1.5440    3.1090 C.3     0  P3G0        0.2178
     21 C20        -1.6990   -2.7450    2.0540 C.3     0  P3G0        0.2186
     22 C21        -2.6880   -2.7860    0.8140 C.3     0  P3G0        0.2345
     23 C22        -2.0550   -3.2300   -0.6350 C.3     0  P3G0        0.2176
     24 C23        -2.2350   -1.9980   -1.4850 C.2     0  P3G0        0.0234
     25 C24        -1.7400   -1.9200   -2.8930 C.3     0  P3G0        0.2178
     26 C25        -1.6970   -0.4060   -3.4050 C.3     0  P3G0        0.2186
     27 C26        -0.2890   -0.0510   -3.0910 C.ar    0  P3G0        0.0096
     28 C27         0.2050    1.2150   -2.8780 C.ar    0  P3G0        0.0096
     29 C28         0.5140    3.0630    0.4350 C.ar    0  P3G0        0.0096
     30 C29         3.6300    0.2870   -1.5330 C.3     0  P3G0        0.2180
     31 C30         3.7940    1.5060   -0.5470 C.3     0  P3G0        0.2341
     32 C31         3.6300    1.1830    1.0180 C.3     0  P3G0        0.2180
     33 C32         3.7930   -0.2800    1.5800 C.3     0  P3G0        0.2341
     34 C33         3.6290   -1.4740    0.5180 C.3     0  P3G0        0.2180
     35 C34         2.7190   -2.0700   -1.9800 C.3     0  P3G0        0.2184
     36 C35         1.8070   -0.9830   -2.4220 C.ar    0  P3G0        0.0096
     37 C36         2.2880    0.2880   -2.1740 C.ar    0  P3G0        0.0094
     38 C37         1.4990    1.3900   -2.4340 C.ar    0  P3G0        0.0096
     39 C38         1.8240    2.7960   -2.0820 C.3     0  P3G0        0.2184
     40 C39         2.7200    2.7490   -0.8000 C.3     0  P3G0        0.2184
     41 C40         2.2870    1.7370    1.3370 C.ar    0  P3G0        0.0094
     42 C41         1.4970    1.4120    2.4210 C.ar    0  P3G0        0.0096
     43 C42         1.8210    0.4050    3.4640 C.3     0  P3G0        0.2184
     44 C43         2.7180   -0.6820    2.7820 C.3     0  P3G0        0.2184
     45 C44         1.8060   -1.6080    2.0620 C.ar    0  P3G0        0.0096
     46 C45         2.2860   -2.0280    0.8370 C.ar    0  P3G0        0.0094
     47 C46         1.4970   -2.8040    0.0130 C.ar    0  P3G0        0.0096
     48 C47         1.8220   -3.2030   -1.3800 C.3     0  P3G0        0.2184
     49 C48         0.5130   -1.1550   -2.8680 C.ar    0  P3G0        0.0096
     50 C49        -0.2360   -2.4340   -3.0030 C.3     0  P3G0        0.2184
     51 C50         0.3070   -3.5230   -1.9940 C.3     0  P3G0        0.2345
     52 C51        -0.5910   -3.7630   -0.6750 C.3     0  P3G0        0.2182
     53 C52         0.2030   -3.1020    0.3880 C.ar    0  P3G0        0.0096
     54 C53        -0.2900   -2.6530    1.5910 C.ar    0  P3G0        0.0096
     55 C54         0.5120   -1.9080    2.4340 C.ar    0  P3G0        0.0096
     56 C55        -0.2370   -1.3830    3.6100 C.3     0  P3G0        0.2184
     57 C56         0.3070    0.0350    4.0480 C.3     0  P3G0        0.2345
     58 C57         1.8080    2.5890    0.3620 C.ar    0  P3G0        0.0096
     59 C58         0.2030    1.8860    2.4920 C.ar    0  P3G0        0.0096
     60 C59         3.7930   -1.2290   -1.0300 C.3     0  P3G0        0.2341
     61  F         -0.0660   -2.2310    4.6810 F       0  P3G0       -0.2294
     62  F1         0.3760    0.0410    5.4010 F       0  P3G0       -0.2304
     63  F2         2.5190    0.9650    4.5040 F       0  P3G0       -0.2294
     64  F3        -0.6350    2.1730    4.6580 F       0  P3G0       -0.2294
     65  F4         4.5730    1.9510    1.6700 F       0  P3G0       -0.2296
     66  F5         5.0440   -0.3690    2.0990 F       0  P3G0       -0.2304
     67  F6         4.5720   -2.4240    0.8570 F       0  P3G0       -0.2296
     68  F7         5.0440   -1.6330   -1.3660 F       0  P3G0       -0.2304
     69  F8         4.5740    0.4690   -2.5250 F       0  P3G0       -0.2296
     70  F9         5.0450    1.9980   -0.7280 F       0  P3G0       -0.2304
     71 F10         3.4370    3.9160   -0.7180 F       0  P3G0       -0.2294
     72 F11        -1.8810    4.3470    2.0100 F       0  P3G0       -0.2294
     73 F12        -0.0630    5.1710   -0.4100 F       0  P3G0       -0.2294
     74 F13         0.3790    4.6560   -2.7380 F       0  P3G0       -0.2304
     75 F14         2.5230    3.4170   -3.0860 F       0  P3G0       -0.2294
     76 F15        -0.6320    2.9470   -4.2110 F       0  P3G0       -0.2294
     77 F16        -1.8800   -0.4310   -4.7690 F       0  P3G0       -0.2294
     78 F17        -2.5480   -2.6780   -3.6960 F       0  P3G0       -0.2294
     79 F18        -0.0640   -2.9380   -4.2730 F       0  P3G0       -0.2294
     80 F19         3.4350   -2.5820   -3.0320 F       0  P3G0       -0.2294
     81 F20         0.3760   -4.6990   -2.6650 F       0  P3G0       -0.2304
     82 F21         2.5200   -4.3830   -1.4150 F       0  P3G0       -0.2294
     83 F22        -0.6360   -5.1210   -0.4480 F       0  P3G0       -0.2294
     84 F23        -1.8830   -3.9140    2.7570 F       0  P3G0       -0.2294
     85 F24        -2.8590    1.1180    4.2290 F       0  P3G0       -0.2296
     86 F25        -3.6620    2.8090    2.6310 F       0  P3G0       -0.2302
     87 F26        -4.7550    1.2920    1.0530 F       0  P3G0       -0.2285
     88 F27        -2.5460    4.5400   -0.4740 F       0  P3G0       -0.2294
     89 F28        -4.7550    0.2680   -1.6470 F       0  P3G0       -0.2285
     90 F29        -2.8560    3.1050   -3.0830 F       0  P3G0       -0.2296
     91 F30        -3.6600    0.8770   -3.7490 F       0  P3G0       -0.2302
     92 F31        -2.8600   -4.2210   -1.1470 F       0  P3G0       -0.2296
     93 F32        -3.6630   -3.6820    1.1150 F       0  P3G0       -0.2302
     94 F33        -4.7560   -1.5570    0.5900 F       0  P3G0       -0.2285
     95 F34         3.4330   -1.3360    3.7520 F       0  P3G0       -0.2294
     96 F35        -2.5490   -1.8600    4.1680 F       0  P3G0       -0.2294
@<TRIPOS>BOND
     1    77    26    1
     2    79    50    1
     3    76    14    1
     4    91    16    1
     5    78    25    1
     6    26    27    1
     7    26    25    1
     8    26    16    1
     9    27    28   ar
    10    27    49   ar
    11    75    39    1
    12    90    15    1
    13    80    35    1
    14    50    25    1
    15    50    49    1
    16    50    51    1
    17    14    28    1
    18    14    15    1
    19    14    13    1
    20    25    24    1
    21    28    38   ar
    22    49    36   ar
    23    16    15    1
    24    16    17    1
    25    74    13    1
    26    81    51    1
    27    69    30    1
    28    15     5    1
    29    38    37   ar
    30    38    39    1
    31    36    37   ar
    32    36    35    1
    33    37    30    1
    34    39    13    1
    35    39    40    1
    36    13    12    1
    37    51    48    1
    38    51    52    1
    39    35    48    1
    40    35    60    1
    41    89    17    1
    42    30    60    1
    43    30    31    1
    44    24    18    2
    45    24    23    1
    46    17    18    1
    47    17     6    1
    48    82    48    1
    49    48    47    1
    50    68    60    1
    51    92    23    1
    52    60    34    1
    53     5     6    2
    54     5     4    1
    55    18    19    1
    56    40    71    1
    57    40    31    1
    58    40    58    1
    59    70    31    1
    60    52    23    1
    61    52    83    1
    62    52    53    1
    63    23    22    1
    64    12    73    1
    65    12     4    1
    66    12    29    1
    67    31    32    1
    68    88     4    1
    69     6     1    1
    70     4     3    1
    71    47    53   ar
    72    47    46   ar
    73    58    29   ar
    74    58    41   ar
    75    53    54   ar
    76    29    11   ar
    77    19    94    1
    78    19    22    1
    79    19     7    1
    80    34    46    1
    81    34    67    1
    82    34    33    1
    83    22    93    1
    84    22    21    1
    85    46    45   ar
    86     1    87    1
    87     1     7    1
    88     1     2    1
    89    32    41    1
    90    32    33    1
    91    32    65    1
    92    41    42   ar
    93     3    11    1
    94     3     2    1
    95     3    72    1
    96     7     8    2
    97    11    59   ar
    98    33    66    1
    99    33    44    1
   100    54    21    1
   101    54    55   ar
   102     2    86    1
   103     2     9    1
   104    21    84    1
   105    21    20    1
   106    45    55   ar
   107    45    44    1
   108    42    59   ar
   109    42    43    1
   110    55    56    1
   111     8    20    1
   112     8     9    1
   113    59    10    1
   114    44    43    1
   115    44    95    1
   116    20    56    1
   117    20    96    1
   118     9    10    1
   119     9    85    1
   120    43    57    1
   121    43    63    1
   122    10    57    1
   123    10    64    1
   124    56    57    1
   125    56    61    1
   126    57    62    1
