@<TRIPOS>MOLECULE
15490181
 18 18 0 0 0
SMALL
GASTEIGER

@<TRIPOS>ATOM
1  N  3.7919  1.7398  -0.2533  N.1  1  UNL1  -0.1901
2  N  3.2461  -2.6337  0.2587  N.1  1  UNL1  -0.1901
3  N  -3.9115  -1.4509  0.2107  N.1  1  UNL1  -0.1901
4  N  -0.3917  -4.1400  0.4942  N.1  1  UNL1  -0.1901
5  N  0.6770  4.0958  -0.4808  N.1  1  UNL1  -0.1901
6  N  -3.4143  2.3967  -0.2303  N.1  1  UNL1  -0.1901
7  C  0.8260  -0.1090  0.0014  C.2  1  UNL1  0.0221
8  C  -0.5012  -0.6592  0.0835  C.2  1  UNL1  0.0221
9  C  -0.3191  0.7583  -0.0843  C.2  1  UNL1  0.0221
10  C  2.1836  -0.2806  0.0004  C.2  1  UNL1  0.1365
11  C  -1.3327  -1.7374  0.2214  C.2  1  UNL1  0.1365
12  C  -0.8482  2.0128  -0.2211  C.2  1  UNL1  0.1365
13  C  3.0758  0.8413  -0.1413  C.1  1  UNL1  0.1108
14  C  2.7717  -1.5876  0.1434  C.1  1  UNL1  0.1108
15  C  -2.7642  -1.5782  0.2171  C.1  1  UNL1  0.1108
16  C  -0.8089  -3.0705  0.3729  C.1  1  UNL1  0.1108
17  C  -0.0007  3.1684  -0.3652  C.1  1  UNL1  0.1108
18  C  -2.2728  2.2249  -0.2260  C.1  1  UNL1  0.1108
@<TRIPOS>BOND
     1     1    13    3
     2     2    14    3
     3     3    15    3
     4     4    16    3
     5     5    17    3
     6     6    18    3
     7     7     8    1
     8     7     9    1
     9     7    10    2
    10     8     9    1
    11     8    11    2
    12     9    12    2
    13    10    13    1
    14    10    14    1
    15    11    15    1
    16    11    16    1
    17    12    17    1
    18    12    18    1
