@<TRIPOS>MOLECULE
F2TCNQ_zentriert_relaxiert.xyz
 20 20 0 0 0
SMALL
GASTEIGER

@<TRIPOS>ATOM
      1 F           1.3248    2.3784    0.0000 F       1  UNL1       -0.2051
      2 C          -0.6937    1.2265    0.0000 C.ar    1  UNL1       -0.0176
      3 H          -1.2185    2.1810   -0.0000 H       1  UNL1        0.0651
      4 C           0.6646    1.2148    0.0000 C.ar    1  UNL1        0.1296
      5 C          -1.4407    0.0032    0.0000 C.ar    1  UNL1        0.0270
      6 C           1.4407   -0.0033    0.0000 C.ar    1  UNL1        0.0270
      7 C          -2.8382    0.0225   -0.0000 C.3     1  UNL1        0.2055
      8 C          -0.6646   -1.2150    0.0000 C.ar    1  UNL1        0.1296
      9 C           0.6937   -1.2267   -0.0000 C.ar    1  UNL1       -0.0176
     10 C           2.8382   -0.0226   -0.0000 C.3     1  UNL1        0.2055
     11 C          -3.6753   -1.1236   -0.0000 C.1     1  UNL1        0.0922
     12 C          -3.5247    1.2681    0.0000 C.1     1  UNL1        0.0922
     13 F          -1.3249   -2.3785   -0.0000 F       1  UNL1       -0.2051
     14 H           1.2186   -2.1811   -0.0000 H       1  UNL1        0.0651
     15 C           3.5248   -1.2682   -0.0000 C.1     1  UNL1        0.0922
     16 C           3.6753    1.1235   -0.0000 C.1     1  UNL1        0.0922
     17 N          -4.4304   -2.0129   -0.0000 N.1     1  UNL1       -0.1945
     18 N          -4.0715    2.2985    0.0000 N.1     1  UNL1       -0.1945
     19 N           4.0714   -2.2986    0.0000 N.1     1  UNL1       -0.1945
     20 N           4.4304    2.0127   -0.0000 N.1     1  UNL1       -0.1945
@<TRIPOS>BOND
     1    13     8    1
     2    14     9    1
     3    10    16    1
     4    10    15    1
     5    10     6    1
     6    17    11    3
     7    16    20    3
     8    11     7    1
     9     9     8   ar
    10     9     6   ar
    11    15    19    3
    12     3     2    1
    13     7    12    1
    14     7     5    1
    15     8     5   ar
    16    12    18    3
    17     1     4    1
    18     2     5   ar
    19     2     4   ar
    20     6     4   ar
