@<TRIPOS>MOLECULE
122383092
 30 30 0 0 0
SMALL
GASTEIGER

@<TRIPOS>ATOM
      1 F           1.3442   -2.8015    0.0989 F       1  UNL1       -0.2017
      2 F          -1.3440   -2.8016   -0.0982 F       1  UNL1       -0.2017
      3 F           1.3440    2.0542    0.0990 F       1  UNL1       -0.2017
      4 F          -1.3443    2.0540   -0.0977 F       1  UNL1       -0.2017
      5 O           3.7480    1.3469   -1.0108 O.3     1  UNL1       -0.4640
      6 O          -3.7486    1.3466    1.0102 O.3     1  UNL1       -0.4640
      7 O           3.6893    1.5587    1.2816 O.2     1  UNL1       -0.2442
      8 O          -3.6887    1.5587   -1.2821 O.2     1  UNL1       -0.2442
      9 N           4.0463   -2.6085    0.2965 N.1     1  UNL1       -0.1906
     10 N          -4.0461   -2.6086   -0.2976 N.1     1  UNL1       -0.1906
     11 C           1.4137   -0.3737    0.1037 C.ar    1  UNL1        0.0754
     12 C          -1.4136   -0.3738   -0.1031 C.ar    1  UNL1        0.0754
     13 C          -0.6693   -1.6338   -0.0486 C.ar    1  UNL1        0.1705
     14 C          -0.6695    0.8864   -0.0485 C.ar    1  UNL1        0.1705
     15 C           0.6693    0.8864    0.0495 C.ar    1  UNL1        0.1705
     16 C           0.6694   -1.6338    0.0495 C.ar    1  UNL1        0.1705
     17 C           2.7531   -0.3738    0.2012 C.2     1  UNL1        0.1482
     18 C          -2.7529   -0.3738   -0.2015 C.2     1  UNL1        0.1482
     19 C           3.4421    0.9442    0.2536 C.2     1  UNL1        0.3501
     20 C          -3.4420    0.9441   -0.2540 C.2     1  UNL1        0.3501
     21 C           3.4637   -1.6058    0.2529 C.1     1  UNL1        0.1071
     22 C          -3.4634   -1.6059   -0.2536 C.1     1  UNL1        0.1071
     23 C           4.4192    2.6072   -1.1146 C.3     1  UNL1        0.0820
     24 C          -4.4199    2.6069    1.1139 C.3     1  UNL1        0.0820
     25 H           4.6024    2.8083   -2.1734 H       1  UNL1        0.0661
     26 H           5.3801    2.5683   -0.5928 H       1  UNL1        0.0661
     27 H           3.7904    3.4055   -0.7091 H       1  UNL1        0.0661
     28 H          -4.6034    2.8080    2.1727 H       1  UNL1        0.0661
     29 H          -5.3806    2.5680    0.5917 H       1  UNL1        0.0661
     30 H          -3.7909    3.4053    0.7086 H       1  UNL1        0.0661
@<TRIPOS>BOND
     1     1    16    1
     2     2    13    1
     3     3    15    1
     4     4    14    1
     5     5    19    1
     6     5    23    1
     7     6    20    1
     8     6    24    1
     9     7    19    2
    10     8    20    2
    11     9    21    3
    12    10    22    3
    13    11    15   ar
    14    11    16   ar
    15    11    17    2
    16    12    13   ar
    17    12    14   ar
    18    12    18    2
    19    13    16   ar
    20    14    15   ar
    21    17    19    1
    22    17    21    1
    23    18    20    1
    24    18    22    1
    25    23    25    1
    26    23    26    1
    27    23    27    1
    28    24    28    1
    29    24    29    1
    30    24    30    1
