@<TRIPOS>MOLECULE
C28H34F4N2O4
 72 72 0 0 0
SMALL
GASTEIGER
****

@<TRIPOS>ATOM
      1 F           0.8471    1.4194    2.6707 F       1  UNL1       -0.2017
      2 C           0.4541    1.5229    1.3823 C.ar    1  UNL1        0.1705
      3 C           1.3784    1.5318    0.3901 C.ar    1  UNL1        0.1705
      4 C           0.9531    1.6434   -1.0044 C.ar    1  UNL1        0.0754
      5 C          -0.4690    1.7450   -1.3291 C.ar    1  UNL1        0.1705
      6 C          -1.3934    1.7352   -0.3370 C.ar    1  UNL1        0.1705
      7 C          -0.9682    1.6194    1.0573 C.ar    1  UNL1        0.0754
      8 C          -1.9248    1.6089    2.0838 C.2     1  UNL1        0.1482
      9 C          -1.5057    1.6192    3.4531 C.1     1  UNL1        0.1071
     10 N          -1.1732    1.6273    4.5393 N.1     1  UNL1       -0.1906
     11 C          -3.3583    1.5872    1.7534 C.2     1  UNL1        0.3504
     12 O          -4.0106    2.6112    1.8101 O.2     1  UNL1       -0.2442
     13 O          -3.9485    0.4313    1.3876 O.3     1  UNL1       -0.4607
     14 C          -5.3656    0.4845    1.0759 C.3     1  UNL1        0.0928
     15 H          -5.9171    0.8312    1.9499 H       1  UNL1        0.0697
     16 H          -5.5296    1.1723    0.2464 H       1  UNL1        0.0697
     17 C          -5.8546   -0.9116    0.6851 C.3     1  UNL1       -0.0185
     18 H          -5.3032   -1.2583   -0.1889 H       1  UNL1        0.0298
     19 H          -5.6907   -1.5995    1.5145 H       1  UNL1        0.0298
     20 C          -7.3479   -0.8555    0.3566 C.3     1  UNL1       -0.0500
     21 H          -7.8994   -0.5088    1.2306 H       1  UNL1        0.0266
     22 H          -7.5119   -0.1676   -0.4729 H       1  UNL1        0.0266
     23 C          -7.8369   -2.2516   -0.0343 C.3     1  UNL1       -0.0530
     24 H          -7.2854   -2.5983   -0.9082 H       1  UNL1        0.0265
     25 H          -7.6729   -2.9394    0.7952 H       1  UNL1        0.0265
     26 C          -9.3302   -2.1955   -0.3627 C.3     1  UNL1       -0.0531
     27 H          -9.8817   -1.8488    0.5112 H       1  UNL1        0.0265
     28 H          -9.4942   -1.5076   -1.1922 H       1  UNL1        0.0265
     29 C          -9.8192   -3.5916   -0.7536 C.3     1  UNL1       -0.0533
     30 H          -9.2677   -3.9382   -1.6275 H       1  UNL1        0.0265
     31 H          -9.6552   -4.2794    0.0759 H       1  UNL1        0.0265
     32 C         -11.3125   -3.5355   -1.0820 C.3     1  UNL1       -0.0559
     33 H         -11.8640   -3.1888   -0.2081 H       1  UNL1        0.0263
     34 H         -11.4765   -2.8476   -1.9115 H       1  UNL1        0.0263
     35 C         -11.8015   -4.9315   -1.4729 C.3     1  UNL1       -0.0653
     36 H         -11.6375   -5.6194   -0.6434 H       1  UNL1        0.0230
     37 H         -12.8653   -4.8916   -1.7069 H       1  UNL1        0.0230
     38 H         -11.2500   -5.2782   -2.3468 H       1  UNL1        0.0230
     39 F          -2.7072    1.8300   -0.6369 F       1  UNL1       -0.2017
     40 F          -0.8620    1.8490   -2.6175 F       1  UNL1       -0.2017
     41 C           1.9096    1.6535   -2.0310 C.2     1  UNL1        0.1482
     42 C           1.4904    1.6823   -3.3999 C.1     1  UNL1        0.1071
     43 N           1.1578    1.7051   -4.4859 N.1     1  UNL1       -0.1906
     44 C           3.3432    1.6344   -1.7009 C.2     1  UNL1        0.3504
     45 O           3.9858    2.6658   -1.7237 O.2     1  UNL1       -0.2442
     46 O           3.9442    0.4727   -1.3730 O.3     1  UNL1       -0.4607
     47 C           5.3608    0.5290   -1.0592 C.3     1  UNL1        0.0928
     48 H           5.9091    0.9093   -1.9211 H       1  UNL1        0.0697
     49 H           5.5182    1.1907   -0.2075 H       1  UNL1        0.0697
     50 C           5.8629   -0.8745   -0.7142 C.3     1  UNL1       -0.0185
     51 H           5.3146   -1.2549    0.1477 H       1  UNL1        0.0298
     52 H           5.7054   -1.5363   -1.5659 H       1  UNL1        0.0298
     53 C           7.3555   -0.8152   -0.3835 C.3     1  UNL1       -0.0500
     54 H           7.9038   -0.4349   -1.2454 H       1  UNL1        0.0266
     55 H           7.5130   -0.1535    0.4682 H       1  UNL1        0.0266
     56 C           7.8576   -2.2187   -0.0386 C.3     1  UNL1       -0.0530
     57 H           7.3094   -2.5991    0.8233 H       1  UNL1        0.0265
     58 H           7.7002   -2.8805   -0.8903 H       1  UNL1        0.0265
     59 C           9.3503   -2.1594    0.2921 C.3     1  UNL1       -0.0531
     60 H           9.8985   -1.7791   -0.5698 H       1  UNL1        0.0265
     61 H           9.5077   -1.4977    1.1438 H       1  UNL1        0.0265
     62 C           9.8524   -3.5629    0.6371 C.3     1  UNL1       -0.0533
     63 H           9.3041   -3.9433    1.4990 H       1  UNL1        0.0265
     64 H           9.6949   -4.2247   -0.2146 H       1  UNL1        0.0265
     65 C          11.3450   -3.5036    0.9678 C.3     1  UNL1       -0.0559
     66 H          11.8933   -3.1233    0.1059 H       1  UNL1        0.0263
     67 H          11.5025   -2.8419    1.8195 H       1  UNL1        0.0263
     68 C          11.8471   -4.9071    1.3128 C.3     1  UNL1       -0.0653
     69 H          11.2989   -5.2875    2.1747 H       1  UNL1        0.0230
     70 H          11.6897   -5.5689    0.4611 H       1  UNL1        0.0230
     71 H          12.9105   -4.8649    1.5484 H       1  UNL1        0.0230
     72 F           2.6923    1.4379    0.6902 F       1  UNL1       -0.2017
@<TRIPOS>BOND
     1     1     2    1
     2     2     3   ar
     3     3     4   ar
     4     4     5   ar
     5     5     6   ar
     6     6     7   ar
     7     2     7   ar
     8     7     8    2
     9     8     9    1
    10     9    10    3
    11     8    11    1
    12    11    12    2
    13    11    13    1
    14    13    14    1
    15    14    15    1
    16    14    16    1
    17    14    17    1
    18    17    18    1
    19    17    19    1
    20    17    20    1
    21    20    21    1
    22    20    22    1
    23    20    23    1
    24    23    24    1
    25    23    25    1
    26    23    26    1
    27    26    27    1
    28    26    28    1
    29    26    29    1
    30    29    30    1
    31    29    31    1
    32    29    32    1
    33    32    33    1
    34    32    34    1
    35    32    35    1
    36    35    36    1
    37    35    37    1
    38    35    38    1
    39     6    39    1
    40     5    40    1
    41     4    41    2
    42    41    42    1
    43    42    43    3
    44    41    44    1
    45    44    45    2
    46    44    46    1
    47    46    47    1
    48    47    48    1
    49    47    49    1
    50    47    50    1
    51    50    51    1
    52    50    52    1
    53    50    53    1
    54    53    54    1
    55    53    55    1
    56    53    56    1
    57    56    57    1
    58    56    58    1
    59    56    59    1
    60    59    60    1
    61    59    61    1
    62    59    62    1
    63    62    63    1
    64    62    64    1
    65    62    65    1
    66    65    66    1
    67    65    67    1
    68    65    68    1
    69    68    69    1
    70    68    70    1
    71    68    71    1
    72     3    72    1
