@<TRIPOS>MOLECULE
122383095
 25 25 0 0 0
SMALL
GASTEIGER

@<TRIPOS>ATOM
      1 F          -0.5797   -2.7542    0.0442 F       1  UNL1       -0.2017
      2 F          -1.3186    2.0365   -0.2407 F       1  UNL1       -0.2017
      3 F           2.0819   -2.3382    0.1346 F       1  UNL1       -0.2017
      4 F           1.3431    2.4524   -0.1507 F       1  UNL1       -0.2017
      5 O          -3.5528    1.0490    1.0009 O.3     1  UNL1       -0.4640
      6 O          -3.5950    1.1204   -1.3005 O.2     1  UNL1       -0.2442
      7 N          -3.2844   -2.9817   -0.0593 N.1     1  UNL1       -0.1906
      8 N           4.7114   -1.7440    0.2129 N.1     1  UNL1       -0.1901
      9 N           4.0290    2.6877   -0.0495 N.1     1  UNL1       -0.1901
     10 C          -1.0179   -0.3695   -0.1007 C.ar    1  UNL1        0.0754
     11 C           1.7814    0.0678   -0.0060 C.ar    1  UNL1        0.0788
     12 C          -0.0893   -1.4976   -0.0016 C.ar    1  UNL1        0.1705
     13 C          -0.4728    0.9888   -0.1496 C.ar    1  UNL1        0.1705
     14 C           1.2362   -1.2906    0.0433 C.ar    1  UNL1        0.1710
     15 C           0.8528    1.1959   -0.1048 C.ar    1  UNL1        0.1710
     16 C          -2.3439   -0.5767   -0.1459 C.2     1  UNL1        0.1482
     17 C           3.1075    0.2748    0.0384 C.2     1  UNL1        0.1409
     18 C          -3.2268    0.6169   -0.2485 C.2     1  UNL1        0.3501
     19 C          -2.8601   -1.9022   -0.0974 C.1     1  UNL1        0.1071
     20 C           3.9895   -0.8388    0.1343 C.1     1  UNL1        0.1110
     21 C           3.6129    1.6049   -0.0102 C.1     1  UNL1        0.1110
     22 C          -4.4045    2.1984    1.0568 C.3     1  UNL1        0.0820
     23 H          -4.5847    2.4370    2.1083 H       1  UNL1        0.0661
     24 H          -5.3633    1.9826    0.5759 H       1  UNL1        0.0661
     25 H          -3.9167    3.0545    0.5810 H       1  UNL1        0.0661
@<TRIPOS>BOND
     1     1    12    1
     2     2    13    1
     3     3    14    1
     4     4    15    1
     5     5    18    1
     6     5    22    1
     7     6    18    2
     8     7    19    3
     9     8    20    3
    10     9    21    3
    11    10    12   ar
    12    10    13   ar
    13    10    16    2
    14    11    14   ar
    15    11    15   ar
    16    11    17    2
    17    12    14   ar
    18    13    15   ar
    19    16    18    1
    20    16    19    1
    21    17    20    1
    22    17    21    1
    23    22    23    1
    24    22    24    1
    25    22    25    1
