@<TRIPOS>MOLECULE
122383094
 46 46 0 0 0
SMALL
GASTEIGER

@<TRIPOS>ATOM
      1 F           1.1362   -3.3733    1.2182 F       1  UNL1       -0.2017
      2 F          -1.2184   -0.0799   -1.4626 F       1  UNL1       -0.2017
      3 F           3.3872   -1.9002    1.0509 F       1  UNL1       -0.2017
      4 F           1.0328    1.3931   -1.6303 F       1  UNL1       -0.2017
      5 O          -3.1538   -1.1925    0.1313 O.3     1  UNL1       -0.4607
      6 O          -2.7400   -2.2390   -1.8780 O.2     1  UNL1       -0.2442
      7 N          -1.2199   -4.7237    1.2787 N.1     1  UNL1       -0.1906
      8 N           5.5468   -0.3070    0.7825 N.1     1  UNL1       -0.1901
      9 N           3.3694    2.7405   -1.6966 N.1     1  UNL1       -0.1901
     10 C          -3.7245    3.0151    0.7773 C.3     1  UNL1       -0.0530
     11 C          -2.6239    4.0553    0.5499 C.3     1  UNL1       -0.0531
     12 C          -3.4719    1.6928    0.0496 C.3     1  UNL1       -0.0500
     13 C          -1.2580    3.6241    1.0885 C.3     1  UNL1       -0.0533
     14 C          -4.6097    0.7020    0.2918 C.3     1  UNL1       -0.0185
     15 C          -0.2157    4.7275    0.8999 C.3     1  UNL1       -0.0559
     16 C          -4.3489   -0.6316   -0.3941 C.3     1  UNL1        0.0928
     17 C           1.1348    4.3206    1.4673 C.3     1  UNL1       -0.0653
     18 C          -2.4364   -1.9835   -0.7213 C.2     1  UNL1        0.3504
     19 C          -1.2186   -2.4972   -0.0349 C.2     1  UNL1        0.1482
     20 C          -0.0993   -1.7647   -0.1180 C.ar    1  UNL1        0.0754
     21 C           1.1350   -2.2115    0.5315 C.ar    1  UNL1        0.1705
     22 C          -0.0871   -0.5022   -0.8600 C.ar    1  UNL1        0.1705
     23 C           2.2684   -0.2157   -0.2944 C.ar    1  UNL1        0.0788
     24 C           2.2561   -1.4779    0.4481 C.ar    1  UNL1        0.1710
     25 C           1.0340    0.2313   -0.9435 C.ar    1  UNL1        0.1710
     26 C          -1.2185   -3.7237    0.6898 C.1     1  UNL1        0.1071
     27 C           3.3901    0.5178   -0.3782 C.2     1  UNL1        0.1409
     28 C           4.5772    0.0615    0.2618 C.1     1  UNL1        0.1110
     29 C           3.3764    1.7420   -1.1051 C.1     1  UNL1        0.1110
     30 H          -3.8297    2.8298    1.8534 H       1  UNL1        0.0265
     31 H          -4.6770    3.4382    0.4350 H       1  UNL1        0.0265
     32 H          -2.5447    4.2719   -0.5224 H       1  UNL1        0.0265
     33 H          -2.9266    4.9892    1.0394 H       1  UNL1        0.0265
     34 H          -3.3606    1.8764   -1.0256 H       1  UNL1        0.0266
     35 H          -2.5344    1.2551    0.4057 H       1  UNL1        0.0266
     36 H          -0.9104    2.7238    0.5706 H       1  UNL1        0.0265
     37 H          -1.3449    3.3758    2.1530 H       1  UNL1        0.0265
     38 H          -5.5562    1.1195   -0.0698 H       1  UNL1        0.0298
     39 H          -4.7112    0.5362    1.3714 H       1  UNL1        0.0298
     40 H          -0.1049    4.9552   -0.1667 H       1  UNL1        0.0263
     41 H          -0.5500    5.6463    1.3955 H       1  UNL1        0.0263
     42 H          -5.1743   -1.3211   -0.1874 H       1  UNL1        0.0697
     43 H          -4.2885   -0.4742   -1.4775 H       1  UNL1        0.0697
     44 H           1.0665    4.1295    2.5430 H       1  UNL1        0.0230
     45 H           1.8686    5.1171    1.3094 H       1  UNL1        0.0230
     46 H           1.5071    3.4135    0.9812 H       1  UNL1        0.0230
@<TRIPOS>BOND
     1     1    21    1
     2     2    22    1
     3     3    24    1
     4     4    25    1
     5     5    16    1
     6     5    18    1
     7     6    18    2
     8     7    26    3
     9     8    28    3
    10     9    29    3
    11    10    11    1
    12    10    12    1
    13    10    30    1
    14    10    31    1
    15    11    13    1
    16    11    32    1
    17    11    33    1
    18    12    14    1
    19    12    34    1
    20    12    35    1
    21    13    15    1
    22    13    36    1
    23    13    37    1
    24    14    16    1
    25    14    38    1
    26    14    39    1
    27    15    17    1
    28    15    40    1
    29    15    41    1
    30    16    42    1
    31    16    43    1
    32    17    44    1
    33    17    45    1
    34    17    46    1
    35    18    19    1
    36    19    20    2
    37    19    26    1
    38    20    21   ar
    39    20    22   ar
    40    21    24   ar
    41    22    25   ar
    42    23    24   ar
    43    23    25   ar
    44    23    27    2
    45    27    28    1
    46    27    29    1
