@<TRIPOS>MOLECULE
F4TCNQ.pdb
 20 20 0 0 0
SMALL
GASTEIGER

@<TRIPOS>ATOM
      1  C         -1.4760   -0.0000    0.0000 C.ar    0  TDZ0        0.0652
      2  C1        -0.6880   -1.2230    0.0000 C.ar    0  TDZ0        0.1674
      3  C2         0.6890   -1.2220   -0.0000 C.ar    0  TDZ0        0.1674
      4  C3         1.4760    0.0000   -0.0000 C.ar    0  TDZ0        0.0652
      5  C4         0.6880    1.2220   -0.0000 C.ar    0  TDZ0        0.1674
      6  C5        -0.6880    1.2220    0.0000 C.ar    0  TDZ0        0.1674
      7  F         -1.3330    2.3960    0.0000 F       0  TDZ0       -0.2020
      8  F1         1.3330    2.3960   -0.0000 F       0  TDZ0       -0.2020
      9  F2         1.3330   -2.3960   -0.0000 F       0  TDZ0       -0.2020
     10  F3        -1.3330   -2.3960    0.0000 F       0  TDZ0       -0.2020
     11  C6        -2.8730   -0.0000    0.0000 C.3     0  TDZ0        0.2083
     12  C7        -3.6530   -1.2070   -0.0000 C.1     0  TDZ0        0.0923
     13  C8        -3.6530    1.2060    0.0000 C.1     0  TDZ0        0.0923
     14  C9         2.8730    0.0000   -0.0000 C.3     0  TDZ0        0.2083
     15 C10         3.6530   -1.2060   -0.0000 C.1     0  TDZ0        0.0923
     16 C11         3.6530    1.2060   -0.0000 C.1     0  TDZ0        0.0923
     17  N         -4.3530   -2.1270   -0.0000 N.1     0  TDZ0       -0.1945
     18  N1        -4.3540    2.1260   -0.0000 N.1     0  TDZ0       -0.1945
     19  N2         4.3530    2.1270    0.0000 N.1     0  TDZ0       -0.1945
     20  N3         4.3540   -2.1260    0.0000 N.1     0  TDZ0       -0.1945
@<TRIPOS>BOND
     1    11    13    1
     2    11    12    1
     3    11     1    1
     4    20    15    3
     5    19    16    3
     6    18    13    3
     7    17    12    3
     8    16    14    1
     9    15    14    1
    10    14     4    1
    11     1     6   ar
    12     1     2   ar
    13    10     2    1
    14     9     3    1
    15     8     5    1
    16     7     6    1
    17     6     5   ar
    18     5     4   ar
    19     4     3   ar
    20     3     2   ar
