@<TRIPOS>MOLECULE
F6TCNNQ.xyz
 26 27 0 0 0
SMALL
GASTEIGER

@<TRIPOS>ATOM
      1 C          -2.5903    0.1779   -0.0000 C.ar    1  UNL1        0.0630
      2 C          -2.0418    1.5048   -0.0000 C.ar    1  UNL1        0.1676
      3 C          -0.6960    1.7436    0.0000 C.ar    1  UNL1        0.1694
      4 C           0.2640    0.6765   -0.0000 C.ar    1  UNL1        0.0614
      5 C          -0.2481   -0.6797   -0.0000 C.ar    1  UNL1        0.0614
      6 C          -1.6187   -0.8815   -0.0000 C.ar    1  UNL1        0.1427
      7 C          -3.9731   -0.0693   -0.0000 C.3     1  UNL1        0.2082
      8 C          -4.5524   -1.3667   -0.0000 C.1     1  UNL1        0.0923
      9 C          -4.9541    0.9593   -0.0000 C.1     1  UNL1        0.0923
     10 C           3.9894    0.0637   -0.0000 C.3     1  UNL1        0.2082
     11 C           4.5698    1.3605    0.0000 C.1     1  UNL1        0.0923
     12 C           4.9687   -0.9666   -0.0000 C.1     1  UNL1        0.0923
     13 N          -5.1203   -2.3864   -0.0000 N.1     1  UNL1       -0.1945
     14 N          -5.8289    1.7318   -0.0000 N.1     1  UNL1       -0.1945
     15 N           5.1366    2.3809    0.0000 N.1     1  UNL1       -0.1945
     16 N           5.8413   -1.7416    0.0000 N.1     1  UNL1       -0.1945
     17 F          -2.0921   -2.1269   -0.0000 F       1  UNL1       -0.2043
     18 F          -2.8704    2.5513   -0.0000 F       1  UNL1       -0.2020
     19 F          -0.2839    3.0120    0.0000 F       1  UNL1       -0.2017
     20 C           0.7114   -1.7470   -0.0000 C.ar    1  UNL1        0.1694
     21 C           1.6349    0.8781    0.0000 C.ar    1  UNL1        0.1427
     22 C           2.6061   -0.1817   -0.0000 C.ar    1  UNL1        0.0630
     23 C           2.0574   -1.5083   -0.0000 C.ar    1  UNL1        0.1676
     24 F           2.8856   -2.5549   -0.0000 F       1  UNL1       -0.2020
     25 F           2.1086    2.1233    0.0000 F       1  UNL1       -0.2043
     26 F           0.2993   -3.0153    0.0000 F       1  UNL1       -0.2017
@<TRIPOS>BOND
     1    24    23    1
     2     7     8    1
     3     7     1    1
     4     7     9    1
     5     8    13    3
     6     1     6   ar
     7     1     2   ar
     8    23    22   ar
     9    23    20   ar
    10    22    10    1
    11    22    21   ar
    12     6    17    1
    13     6     5   ar
    14     9    14    3
    15    18     2    1
    16     2     3   ar
    17    10    12    1
    18    10    11    1
    19     5    20   ar
    20     5     4   ar
    21    12    16    3
    22    20    26    1
    23     4    21   ar
    24     4     3   ar
    25    11    15    3
    26    21    25    1
    27     3    19    1
