@<TRIPOS>MOLECULE
FTCNQ_zentriert_relaxiert.xyz
 20 20 0 0 0
SMALL
GASTEIGER

@<TRIPOS>ATOM
      1 F          -1.2078   -2.3554   -0.0000 F       1  UNL1       -0.2051
      2 N          -4.2995   -1.9273    0.0000 N.1     1  UNL1       -0.1945
      3 N          -3.8698    2.3681   -0.0001 N.1     1  UNL1       -0.1945
      4 N           4.2871   -2.2856    0.0000 N.1     1  UNL1       -0.1945
      5 N           4.3586    2.1433   -0.0000 N.1     1  UNL1       -0.1945
      6 C          -1.2696    0.0269   -0.0003 C.ar    1  UNL1        0.0243
      7 C           1.5886   -0.0305   -0.0002 C.ar    1  UNL1       -0.0082
      8 C          -0.5210   -1.2060   -0.0002 C.ar    1  UNL1        0.1295
      9 C          -0.4897    1.2388   -0.0004 C.ar    1  UNL1       -0.0529
     10 C           0.8377   -1.2488   -0.0002 C.ar    1  UNL1       -0.0203
     11 C           0.8691    1.2161   -0.0004 C.ar    1  UNL1       -0.0555
     12 C          -2.6654    0.0758   -0.0002 C.3     1  UNL1        0.2054
     13 C           2.9884   -0.0496   -0.0001 C.3     1  UNL1        0.2028
     14 C          -3.5273   -1.0530   -0.0001 C.1     1  UNL1        0.0922
     15 C          -3.3312    1.3336   -0.0001 C.1     1  UNL1        0.0922
     16 C           3.7119   -1.2703   -0.0001 C.1     1  UNL1        0.0921
     17 C           3.7465    1.1499   -0.0001 C.1     1  UNL1        0.0921
     18 H          -1.0223    2.1893   -0.0005 H       1  UNL1        0.0622
     19 H           1.3433   -2.2136   -0.0001 H       1  UNL1        0.0650
     20 H           1.4338    2.1475   -0.0005 H       1  UNL1        0.0621
@<TRIPOS>BOND
     1    18     9    1
     2    20    11    1
     3     9    11   ar
     4     9     6   ar
     5    11     7   ar
     6     6    12    1
     7     6     8   ar
     8     7    10   ar
     9     7    13    1
    10    12    15    1
    11    12    14    1
    12    10     8   ar
    13    10    19    1
    14     8     1    1
    15    13    17    1
    16    13    16    1
    17    15     3    3
    18    17     5    3
    19    16     4    3
    20    14     2    3
