@<TRIPOS>MOLECULE
TCNQ.pdb
 20 20 0 0 0
SMALL
GASTEIGER

@<TRIPOS>ATOM
      1  N         -4.2140   -2.2160   -0.0000 N.1     0  TDZ0       -0.1945
      2  N1        -4.2140    2.2160   -0.0000 N.1     0  TDZ0       -0.1945
      3  N2         4.2140   -2.2160   -0.0000 N.1     0  TDZ0       -0.1945
      4  N3         4.2140    2.2160   -0.0000 N.1     0  TDZ0       -0.1945
      5  C         -1.4320   -0.0000   -0.0000 C.ar    0  TDZ0       -0.0109
      6  C1         1.4320   -0.0000   -0.0000 C.ar    0  TDZ0       -0.0109
      7  C2         0.6860   -1.2400   -0.0000 C.ar    0  TDZ0       -0.0557
      8  C3        -0.6860   -1.2400    0.0000 C.ar    0  TDZ0       -0.0557
      9  C4         0.6860    1.2400   -0.0000 C.ar    0  TDZ0       -0.0557
     10  C5        -0.6860    1.2400   -0.0000 C.ar    0  TDZ0       -0.0557
     11  C6        -2.8430   -0.0000   -0.0000 C.3     0  TDZ0        0.2027
     12  C7         2.8430    0.0000   -0.0000 C.3     0  TDZ0        0.2027
     13  C8        -3.5950   -1.2150   -0.0000 C.1     0  TDZ0        0.0921
     14  C9        -3.5950    1.2150   -0.0000 C.1     0  TDZ0        0.0921
     15 C10         3.5950   -1.2150   -0.0000 C.1     0  TDZ0        0.0921
     16 C11         3.5950    1.2150   -0.0000 C.1     0  TDZ0        0.0921
     17  H          1.2380   -2.1940   -0.0010 H       0  TDZ0        0.0621
     18  H1         1.2380    2.1940   -0.0000 H       0  TDZ0        0.0621
     19  H2        -1.2380   -2.1940    0.0000 H       0  TDZ0        0.0621
     20  H3        -1.2380    2.1940   -0.0000 H       0  TDZ0        0.0621
@<TRIPOS>BOND
     1    17     7    1
     2    11    14    1
     3    11    13    1
     4    11     5    1
     5    20    10    1
     6    19     8    1
     7    18     9    1
     8    16    12    1
     9    16     4    3
    10    15    12    1
    11    15     3    3
    12    14     2    3
    13    13     1    3
    14    12     6    1
    15    10     9   ar
    16    10     5   ar
    17     9     6   ar
    18     8     7   ar
    19     8     5   ar
    20     7     6   ar
