@<TRIPOS>MOLECULE
86280045
 58 66 0 0 0
SMALL
GASTEIGER

@<TRIPOS>ATOM
      1 N           0.0003   -1.6575   -0.1257 N.ar    1  UNL1       -0.2822
      2 N           0.0002    2.5629    0.8893 N.ar    1  UNL1       -0.2822
      3 N          -2.4191   -2.0521   -0.2803 N.2     1  UNL1       -0.0158
      4 N           2.4198   -2.0513   -0.2811 N.2     1  UNL1       -0.0158
      5 N          -2.3741    2.5689    0.6727 N.2     1  UNL1       -0.0158
      6 N           2.3742    2.5697    0.6713 N.2     1  UNL1       -0.0158
      7 N          -2.0418    0.2907   -0.0116 N.2     1  UNL1        0.0119
      8 N           2.0425    0.2914   -0.0130 N.2     1  UNL1        0.0119
      9 C          -0.7040   -3.6855   -0.8237 C.ar    1  UNL1        0.0564
     10 C           0.7049   -3.6853   -0.8241 C.ar    1  UNL1        0.0564
     11 C          -0.7142    3.4524   -0.9942 C.ar    1  UNL1        0.0564
     12 C           0.7132    3.4528   -0.9946 C.ar    1  UNL1        0.0564
     13 C          -1.1682   -2.3557   -0.3739 C.ar    1  UNL1        0.2574
     14 C           1.1689   -2.3553   -0.3744 C.ar    1  UNL1        0.2574
     15 C          -1.1468    2.8571    0.1691 C.ar    1  UNL1        0.2574
     16 C           1.1467    2.8575    0.1685 C.ar    1  UNL1        0.2574
     17 C          -4.0258   -0.5382    0.7822 C.ar    1  UNL1        0.0871
     18 C           4.0259   -0.5373    0.7821 C.ar    1  UNL1        0.0871
     19 C          -4.0265    0.8199    1.0567 C.ar    1  UNL1        0.0871
     20 C           4.0267    0.8209    1.0559 C.ar    1  UNL1        0.0871
     21 C          -2.7534   -0.7913    0.1290 C.2     1  UNL1        0.3805
     22 C           2.7540   -0.7905    0.1283 C.2     1  UNL1        0.3805
     23 C          -2.7543    1.3358    0.5636 C.2     1  UNL1        0.3805
     24 C           2.7546    1.3367    0.5623 C.2     1  UNL1        0.3805
     25 C          -1.4296   -4.7961   -1.2008 C.ar    1  UNL1       -0.0481
     26 C           1.4307   -4.7955   -1.2017 C.ar    1  UNL1       -0.0481
     27 C          -1.5174    3.9460   -2.0170 C.ar    1  UNL1       -0.0481
     28 C           1.5156    3.9467   -2.0178 C.ar    1  UNL1       -0.0481
     29 C          -5.0807   -1.3572    1.1188 C.ar    1  UNL1       -0.0457
     30 C           5.0802   -1.3565    1.1200 C.ar    1  UNL1       -0.0457
     31 C          -5.0843    1.4382    1.6867 C.ar    1  UNL1       -0.0457
     32 C           5.0842    1.4393    1.6861 C.ar    1  UNL1       -0.0457
     33 C          -0.7050   -5.9283   -1.5854 C.ar    1  UNL1       -0.0610
     34 C           0.7063   -5.9281   -1.5858 C.ar    1  UNL1       -0.0610
     35 C          -0.7212    4.4597   -3.0659 C.ar    1  UNL1       -0.0610
     36 C           0.7187    4.4600   -3.0663 C.ar    1  UNL1       -0.0610
     37 C          -6.1676   -0.7533    1.7576 C.ar    1  UNL1       -0.0609
     38 C           6.1669   -0.7526    1.7592 C.ar    1  UNL1       -0.0609
     39 C          -6.1695    0.6299    2.0387 C.ar    1  UNL1       -0.0609
     40 C           6.1690    0.6309    2.0393 C.ar    1  UNL1       -0.0609
     41 H           0.0002   -0.6983    0.2033 H       1  UNL1        0.1729
     42 H           0.0005    2.1211    1.7972 H       1  UNL1        0.1729
     43 H          -2.5131   -4.8027   -1.2031 H       1  UNL1        0.0625
     44 H           2.5143   -4.8018   -1.2045 H       1  UNL1        0.0625
     45 H          -2.5977    3.9472   -2.0364 H       1  UNL1        0.0625
     46 H           2.5959    3.9484   -2.0377 H       1  UNL1        0.0625
     47 H          -5.0785   -2.4190    0.9041 H       1  UNL1        0.0626
     48 H           5.0779   -2.4183    0.9059 H       1  UNL1        0.0626
     49 H          -5.0851    2.4995    1.9039 H       1  UNL1        0.0626
     50 H           5.0852    2.5007    1.9029 H       1  UNL1        0.0626
     51 H          -1.2361   -6.8266   -1.8903 H       1  UNL1        0.0618
     52 H           1.2376   -6.8262   -1.8910 H       1  UNL1        0.0618
     53 H          -1.2264    4.8811   -3.9351 H       1  UNL1        0.0618
     54 H           1.2233    4.8817   -3.9357 H       1  UNL1        0.0618
     55 H          -7.0256   -1.3561    2.0440 H       1  UNL1        0.0618
     56 H           7.0246   -1.3554    2.0465 H       1  UNL1        0.0618
     57 H          -7.0289    1.0709    2.5373 H       1  UNL1        0.0618
     58 H           7.0281    1.0720    2.5382 H       1  UNL1        0.0618
@<TRIPOS>BOND
     1     1    13   ar
     2     1    14   ar
     3     1    41    1
     4     2    15   ar
     5     2    16   ar
     6     2    42    1
     7     3    13    2
     8     3    21    1
     9     4    14    2
    10     4    22    1
    11     5    15    1
    12     5    23    2
    13     6    16    1
    14     6    24    2
    15     7    21    2
    16     7    23    1
    17     8    22    2
    18     8    24    1
    19     9    10   ar
    20     9    13   ar
    21     9    25   ar
    22    10    14   ar
    23    10    26   ar
    24    11    12   ar
    25    11    15   ar
    26    11    27   ar
    27    12    16   ar
    28    12    28   ar
    29    17    19   ar
    30    17    21    1
    31    17    29   ar
    32    18    20   ar
    33    18    22    1
    34    18    30   ar
    35    19    23    1
    36    19    31   ar
    37    20    24    1
    38    20    32   ar
    39    25    33   ar
    40    25    43    1
    41    26    34   ar
    42    26    44    1
    43    27    35   ar
    44    27    45    1
    45    28    36   ar
    46    28    46    1
    47    29    37   ar
    48    29    47    1
    49    30    38   ar
    50    30    48    1
    51    31    39   ar
    52    31    49    1
    53    32    40   ar
    54    32    50    1
    55    33    34   ar
    56    33    51    1
    57    34    52    1
    58    35    36   ar
    59    35    53    1
    60    36    54    1
    61    37    39   ar
    62    37    55    1
    63    38    40   ar
    64    38    56    1
    65    39    57    1
    66    40    58    1
